Y6J


 32 36  0  0  0  0  0  0  0  0999 V2000
   24.4427   -0.1195   15.7124 N   0  0  0  0  0  0  0  0  0  0  0  0
   24.8921   -1.3799   15.8820 C   0  0  0  0  0  0  0  0  0  0  0  0
   24.9682   -1.8513   16.9966 O   0  0  0  0  0  0  0  0  0  0  0  0
   24.1588    0.6777   16.8280 C   0  0  0  0  0  0  0  0  0  0  0  0
   23.5950    2.2526   19.0349 C   0  0  0  0  0  0  0  0  0  0  0  0
   22.9079    0.6090   17.4286 C   0  0  0  0  0  0  0  0  0  0  0  0
   22.6273    1.3946   18.5292 C   0  0  0  0  0  0  0  0  0  0  0  0
   24.8469    2.3176   18.4365 C   0  0  0  0  0  0  0  0  0  0  0  0
   25.1275    1.5323   17.3373 C   0  0  0  0  0  0  0  0  0  0  0  0
   23.9814    2.8629   21.3038 C   0  0  0  0  0  0  0  0  0  0  0  0
   23.3093    3.0496   20.1506 N   0  0  0  0  0  0  0  0  0  0  0  0
   24.8913    2.0617   21.3515 O   0  0  0  0  0  0  0  0  0  0  0  0
   22.6273    3.7368   20.0927 H   0  0  0  0  0  0  0  0  0  0  0  0
   23.6025    3.6476   22.5325 C   0  0  0  0  0  0  0  0  0  0  0  0
   23.8770    5.1521   22.5224 C   0  0  0  0  0  0  0  0  0  0  0  0
   24.7384    4.2236   23.3808 C   0  0  0  0  0  0  0  0  0  0  0  0
   25.2989   -2.2021   14.6862 C   0  0  0  0  0  0  0  0  0  0  0  0
   28.6977   -3.5334   14.5466 C   0  0  0  0  0  0  0  0  0  0  0  0
   28.7866   -2.6078   15.5225 N   0  0  0  0  0  0  0  0  0  0  0  0
   27.3749   -3.5294   14.0731 C   0  0  0  0  0  0  0  0  0  0  0  0
   27.0017   -4.3949   13.0494 C   0  0  0  0  0  0  0  0  0  0  0  0
   27.9251   -5.2454   12.5089 C   0  0  0  0  0  0  0  0  0  0  0  0
   29.2342   -5.2538   12.9720 C   0  0  0  0  0  0  0  0  0  0  0  0
   29.6251   -4.4162   13.9749 C   0  0  0  0  0  0  0  0  0  0  0  0
   26.7086   -2.5785   14.8103 N   0  0  0  0  0  0  0  0  0  0  0  0
   27.6474   -2.0369   15.7012 N   0  0  0  0  0  0  0  0  0  0  0  0
   24.2538    0.4138   14.3614 C   0  0  0  0  0  0  0  0  0  0  0  0
   25.4629    1.2239   13.9679 C   0  0  0  0  0  0  0  0  0  0  0  0
   25.4532    2.1050   12.9011 C   0  0  0  0  0  0  0  0  0  0  0  0
   26.6060    2.7430   12.6886 C   0  0  0  0  0  0  0  0  0  0  0  0
   26.6206    1.1490   14.6254 C   0  0  0  0  0  0  0  0  0  0  0  0
   27.7927    2.2282   13.8803 S   0  0  0  0  0  0  0  0  0  0  0  0
 18 24  1  0
 19 18  1  0
  1  4  1  0
  1  2  1  0
 28 27  1  0
  4  9  2  0
  5 11  1  0
  5  8  2  0
 29 28  1  0
 30 32  1  0
 30 29  2  0
 31 28  2  0
  2 17  1  0
 17 25  1  0
 20 18  2  0
 20 21  1  0
 21 22  2  0
 22 23  1  0
 24 23  2  0
 27  1  1  0
  6  7  2  0
  6  4  1  0
  7  5  1  0
 10 11  1  0
 10 14  1  0
 14 16  1  0
 14 15  1  0
 16 15  1  0
  9  8  1  0
 25 20  1  0
 26 25  1  0
 26 19  2  0
 11 13  1  0
  3  2  2  0
 12 10  2  0
 32 31  1  0
M  END
> <minimizedAffinity>
-7.24588

> <CNNscore>
0.3474997580

> <CNNaffinity>
6.1515364647

> <CNN_VS>
2.1376574039

> <CNNaffinity_variance>
0.2465245575

$$$$
Y6J


 32 36  0  0  0  0  0  0  0  0999 V2000
   25.7405   -0.1770   16.4498 N   0  0  0  0  0  0  0  0  0  0  0  0
   25.0586   -1.3376   16.3652 C   0  0  0  0  0  0  0  0  0  0  0  0
   24.1064   -1.5353   17.0896 O   0  0  0  0  0  0  0  0  0  0  0  0
   25.4114    0.7569   17.4399 C   0  0  0  0  0  0  0  0  0  0  0  0
   24.7635    2.6046   19.3981 C   0  0  0  0  0  0  0  0  0  0  0  0
   26.4076    1.2897   18.2485 C   0  0  0  0  0  0  0  0  0  0  0  0
   26.0839    2.2112   19.2249 C   0  0  0  0  0  0  0  0  0  0  0  0
   23.7685    2.0746   18.5864 C   0  0  0  0  0  0  0  0  0  0  0  0
   24.0919    1.1545   17.6105 C   0  0  0  0  0  0  0  0  0  0  0  0
   24.4365    3.1743   21.6868 C   0  0  0  0  0  0  0  0  0  0  0  0
   24.4359    3.5385   20.3891 N   0  0  0  0  0  0  0  0  0  0  0  0
   24.8018    2.0615   22.0033 O   0  0  0  0  0  0  0  0  0  0  0  0
   24.2087    4.4482   20.1410 H   0  0  0  0  0  0  0  0  0  0  0  0
   23.9832    4.1480   22.7430 C   0  0  0  0  0  0  0  0  0  0  0  0
   24.1247    5.6396   22.4362 C   0  0  0  0  0  0  0  0  0  0  0  0
   25.0594    4.9756   23.4492 C   0  0  0  0  0  0  0  0  0  0  0  0
   25.4798   -2.3883   15.3700 C   0  0  0  0  0  0  0  0  0  0  0  0
   26.9590   -5.3233   16.9641 C   0  0  0  0  0  0  0  0  0  0  0  0
   25.6555   -5.4418   17.2865 N   0  0  0  0  0  0  0  0  0  0  0  0
   27.1045   -4.1568   16.1945 C   0  0  0  0  0  0  0  0  0  0  0  0
   28.3615   -3.7868   15.7263 C   0  0  0  0  0  0  0  0  0  0  0  0
   29.4496   -4.5609   16.0178 C   0  0  0  0  0  0  0  0  0  0  0  0
   29.3126   -5.7145   16.7784 C   0  0  0  0  0  0  0  0  0  0  0  0
   28.0916   -6.0996   17.2484 C   0  0  0  0  0  0  0  0  0  0  0  0
   25.8455   -3.6148   16.0817 N   0  0  0  0  0  0  0  0  0  0  0  0
   24.9817   -4.4660   16.7870 N   0  0  0  0  0  0  0  0  0  0  0  0
   26.8253    0.1042   15.5066 C   0  0  0  0  0  0  0  0  0  0  0  0
   26.2596    0.7583   14.2716 C   0  0  0  0  0  0  0  0  0  0  0  0
   25.5995    1.9737   14.3094 C   0  0  0  0  0  0  0  0  0  0  0  0
   25.1614    2.4123   13.1274 C   0  0  0  0  0  0  0  0  0  0  0  0
   26.3628    0.2113   13.0599 C   0  0  0  0  0  0  0  0  0  0  0  0
   25.5862    1.2533   11.8745 S   0  0  0  0  0  0  0  0  0  0  0  0
 18 24  1  0
 19 18  1  0
  1  4  1  0
  1  2  1  0
 28 27  1  0
  4  9  2  0
  5 11  1  0
  5  8  2  0
 29 28  1  0
 30 32  1  0
 30 29  2  0
 31 28  2  0
  2 17  1  0
 17 25  1  0
 20 18  2  0
 20 21  1  0
 21 22  2  0
 22 23  1  0
 24 23  2  0
 27  1  1  0
  6  7  2  0
  6  4  1  0
  7  5  1  0
 10 11  1  0
 10 14  1  0
 14 16  1  0
 14 15  1  0
 16 15  1  0
  9  8  1  0
 25 20  1  0
 26 25  1  0
 26 19  2  0
 11 13  1  0
  3  2  2  0
 12 10  2  0
 32 31  1  0
M  END
> <minimizedAffinity>
-6.68466

> <CNNscore>
0.2761059105

> <CNNaffinity>
5.9434351921

> <CNN_VS>
1.6410175562

> <CNNaffinity_variance>
0.4323680401

$$$$
Y6J


 32 36  0  0  0  0  0  0  0  0999 V2000
   28.3010   -3.0512   13.9040 N   0  0  0  0  0  0  0  0  0  0  0  0
   28.7962   -1.8180   13.6731 C   0  0  0  0  0  0  0  0  0  0  0  0
   29.9759   -1.5967   13.8451 O   0  0  0  0  0  0  0  0  0  0  0  0
   29.1275   -4.0483   14.4363 C   0  0  0  0  0  0  0  0  0  0  0  0
   30.7632   -6.0207   15.4863 C   0  0  0  0  0  0  0  0  0  0  0  0
   29.6597   -5.0249   13.6037 C   0  0  0  0  0  0  0  0  0  0  0  0
   30.4754   -6.0082   14.1279 C   0  0  0  0  0  0  0  0  0  0  0  0
   30.2341   -5.0415   16.3176 C   0  0  0  0  0  0  0  0  0  0  0  0
   29.4197   -4.0586   15.7938 C   0  0  0  0  0  0  0  0  0  0  0  0
   32.8821   -7.0956   15.6426 C   0  0  0  0  0  0  0  0  0  0  0  0
   31.5898   -7.0189   16.0173 N   0  0  0  0  0  0  0  0  0  0  0  0
   33.3514   -6.2499   14.9100 O   0  0  0  0  0  0  0  0  0  0  0  0
   31.2315   -7.6554   16.6556 H   0  0  0  0  0  0  0  0  0  0  0  0
   33.7428   -8.2307   16.1322 C   0  0  0  0  0  0  0  0  0  0  0  0
   35.2301   -7.9475   16.3480 C   0  0  0  0  0  0  0  0  0  0  0  0
   34.7789   -8.8012   15.1612 C   0  0  0  0  0  0  0  0  0  0  0  0
   27.8832   -0.7157   13.2009 C   0  0  0  0  0  0  0  0  0  0  0  0
   26.2358    1.0766   15.9245 C   0  0  0  0  0  0  0  0  0  0  0  0
   27.5317    1.4027   16.1021 N   0  0  0  0  0  0  0  0  0  0  0  0
   26.1583    0.2269   14.8082 C   0  0  0  0  0  0  0  0  0  0  0  0
   24.9246   -0.2697   14.3986 C   0  0  0  0  0  0  0  0  0  0  0  0
   23.7932    0.0720   15.0853 C   0  0  0  0  0  0  0  0  0  0  0  0
   23.8633    0.9108   16.1896 C   0  0  0  0  0  0  0  0  0  0  0  0
   25.0599    1.4117   16.6108 C   0  0  0  0  0  0  0  0  0  0  0  0
   27.4466    0.0810   14.3495 N   0  0  0  0  0  0  0  0  0  0  0  0
   28.2605    0.8420   15.2021 N   0  0  0  0  0  0  0  0  0  0  0  0
   26.8989   -3.3451   13.5989 C   0  0  0  0  0  0  0  0  0  0  0  0
   26.2898   -4.1230   14.7377 C   0  0  0  0  0  0  0  0  0  0  0  0
   26.2851   -5.5062   14.7753 C   0  0  0  0  0  0  0  0  0  0  0  0
   25.7061   -6.0371   15.8543 C   0  0  0  0  0  0  0  0  0  0  0  0
   25.7198   -3.5296   15.7869 C   0  0  0  0  0  0  0  0  0  0  0  0
   25.1220   -4.7511   16.9024 S   0  0  0  0  0  0  0  0  0  0  0  0
 18 24  1  0
 19 18  1  0
  1  4  1  0
  1  2  1  0
 28 27  1  0
  4  9  2  0
  5 11  1  0
  5  8  2  0
 29 28  1  0
 30 32  1  0
 30 29  2  0
 31 28  2  0
  2 17  1  0
 17 25  1  0
 20 18  2  0
 20 21  1  0
 21 22  2  0
 22 23  1  0
 24 23  2  0
 27  1  1  0
  6  7  2  0
  6  4  1  0
  7  5  1  0
 10 11  1  0
 10 14  1  0
 14 16  1  0
 14 15  1  0
 16 15  1  0
  9  8  1  0
 25 20  1  0
 26 25  1  0
 26 19  2  0
 11 13  1  0
  3  2  2  0
 12 10  2  0
 32 31  1  0
M  END
> <minimizedAffinity>
-6.49957

> <CNNscore>
0.2062886357

> <CNNaffinity>
5.5546188354

> <CNN_VS>
1.1458547115

> <CNNaffinity_variance>
0.5461272597

$$$$
Y6J


 32 36  0  0  0  0  0  0  0  0999 V2000
   28.2950   -3.0787   15.5175 N   0  0  0  0  0  0  0  0  0  0  0  0
   28.6222   -1.9064   16.0986 C   0  0  0  0  0  0  0  0  0  0  0  0
   29.7162   -1.7640   16.6021 O   0  0  0  0  0  0  0  0  0  0  0  0
   29.1795   -4.1624   15.5826 C   0  0  0  0  0  0  0  0  0  0  0  0
   30.9294   -6.3049   15.7086 C   0  0  0  0  0  0  0  0  0  0  0  0
   29.6674   -4.7300   14.4122 C   0  0  0  0  0  0  0  0  0  0  0  0
   30.5401   -5.7984   14.4756 C   0  0  0  0  0  0  0  0  0  0  0  0
   30.4445   -5.7341   16.8786 C   0  0  0  0  0  0  0  0  0  0  0  0
   29.5731   -4.6663   16.8153 C   0  0  0  0  0  0  0  0  0  0  0  0
   33.1134   -7.2197   15.4576 C   0  0  0  0  0  0  0  0  0  0  0  0
   31.8138   -7.3891   15.7720 N   0  0  0  0  0  0  0  0  0  0  0  0
   33.5349   -6.1113   15.2008 O   0  0  0  0  0  0  0  0  0  0  0  0
   31.4904   -8.2624   16.0428 H   0  0  0  0  0  0  0  0  0  0  0  0
   34.0415   -8.4056   15.4244 C   0  0  0  0  0  0  0  0  0  0  0  0
   35.4639   -8.2045   15.9493 C   0  0  0  0  0  0  0  0  0  0  0  0
   35.2178   -8.3548   14.4468 C   0  0  0  0  0  0  0  0  0  0  0  0
   27.6284   -0.7735   16.1217 C   0  0  0  0  0  0  0  0  0  0  0  0
   27.3059    1.3228   13.1476 C   0  0  0  0  0  0  0  0  0  0  0  0
   28.5140    0.7511   12.9722 N   0  0  0  0  0  0  0  0  0  0  0  0
   26.7789    0.8448   14.3591 C   0  0  0  0  0  0  0  0  0  0  0  0
   25.5302    1.2801   14.7923 C   0  0  0  0  0  0  0  0  0  0  0  0
   24.8219    2.1715   14.0361 C   0  0  0  0  0  0  0  0  0  0  0  0
   25.3375    2.6481   12.8381 C   0  0  0  0  0  0  0  0  0  0  0  0
   26.5585    2.2365   12.3909 C   0  0  0  0  0  0  0  0  0  0  0  0
   27.7184   -0.0208   14.8688 N   0  0  0  0  0  0  0  0  0  0  0  0
   28.7819   -0.0365   13.9539 N   0  0  0  0  0  0  0  0  0  0  0  0
   27.0143   -3.2170   14.8204 C   0  0  0  0  0  0  0  0  0  0  0  0
   26.1944   -4.2934   15.4854 C   0  0  0  0  0  0  0  0  0  0  0  0
   26.2766   -5.6250   15.1183 C   0  0  0  0  0  0  0  0  0  0  0  0
   25.4837   -6.4479   15.8077 C   0  0  0  0  0  0  0  0  0  0  0  0
   25.3395   -4.0343   16.4753 C   0  0  0  0  0  0  0  0  0  0  0  0
   24.5672   -5.5272   16.9935 S   0  0  0  0  0  0  0  0  0  0  0  0
 18 24  1  0
 19 18  1  0
  1  4  1  0
  1  2  1  0
 28 27  1  0
  4  9  2  0
  5 11  1  0
  5  8  2  0
 29 28  1  0
 30 32  1  0
 30 29  2  0
 31 28  2  0
  2 17  1  0
 17 25  1  0
 20 18  2  0
 20 21  1  0
 21 22  2  0
 22 23  1  0
 24 23  2  0
 27  1  1  0
  6  7  2  0
  6  4  1  0
  7  5  1  0
 10 11  1  0
 10 14  1  0
 14 16  1  0
 14 15  1  0
 16 15  1  0
  9  8  1  0
 25 20  1  0
 26 25  1  0
 26 19  2  0
 11 13  1  0
  3  2  2  0
 12 10  2  0
 32 31  1  0
M  END
> <minimizedAffinity>
-6.62469

> <CNNscore>
0.1964765191

> <CNNaffinity>
5.5847892761

> <CNN_VS>
1.0972799063

> <CNNaffinity_variance>
0.2871738970

$$$$
Y6J


 32 36  0  0  0  0  0  0  0  0999 V2000
   25.9800   -1.1656   14.0156 N   0  0  0  0  0  0  0  0  0  0  0  0
   25.0314   -1.0444   14.9668 C   0  0  0  0  0  0  0  0  0  0  0  0
   25.1400   -1.6500   16.0117 O   0  0  0  0  0  0  0  0  0  0  0  0
   27.0378   -2.0657   14.1936 C   0  0  0  0  0  0  0  0  0  0  0  0
   29.1302   -3.8446   14.5481 C   0  0  0  0  0  0  0  0  0  0  0  0
   28.0722   -1.7556   15.0677 C   0  0  0  0  0  0  0  0  0  0  0  0
   29.1154   -2.6431   15.2441 C   0  0  0  0  0  0  0  0  0  0  0  0
   28.0935   -4.1560   13.6775 C   0  0  0  0  0  0  0  0  0  0  0  0
   27.0509   -3.2696   13.5017 C   0  0  0  0  0  0  0  0  0  0  0  0
   30.1375   -5.6601   15.7139 C   0  0  0  0  0  0  0  0  0  0  0  0
   30.1891   -4.7437   14.7269 N   0  0  0  0  0  0  0  0  0  0  0  0
   29.1381   -5.7616   16.3944 O   0  0  0  0  0  0  0  0  0  0  0  0
   30.9600   -4.7068   14.1394 H   0  0  0  0  0  0  0  0  0  0  0  0
   31.3199   -6.5568   15.9723 C   0  0  0  0  0  0  0  0  0  0  0  0
   31.2732   -7.4470   17.2150 C   0  0  0  0  0  0  0  0  0  0  0  0
   32.2022   -6.2319   17.1797 C   0  0  0  0  0  0  0  0  0  0  0  0
   23.8371   -0.1558   14.7309 C   0  0  0  0  0  0  0  0  0  0  0  0
   23.3777    1.6828   17.8537 C   0  0  0  0  0  0  0  0  0  0  0  0
   22.2273    0.9875   17.7523 N   0  0  0  0  0  0  0  0  0  0  0  0
   24.1672    1.3679   16.7349 C   0  0  0  0  0  0  0  0  0  0  0  0
   25.4194    1.9551   16.5820 C   0  0  0  0  0  0  0  0  0  0  0  0
   25.8755    2.8363   17.5220 C   0  0  0  0  0  0  0  0  0  0  0  0
   25.0998    3.1521   18.6296 C   0  0  0  0  0  0  0  0  0  0  0  0
   23.8695    2.5896   18.8033 C   0  0  0  0  0  0  0  0  0  0  0  0
   23.4371    0.4684   15.9937 N   0  0  0  0  0  0  0  0  0  0  0  0
   22.2316    0.2707   16.6837 N   0  0  0  0  0  0  0  0  0  0  0  0
   25.9015   -0.3563   12.7973 C   0  0  0  0  0  0  0  0  0  0  0  0
   26.3893    1.0399   13.0898 C   0  0  0  0  0  0  0  0  0  0  0  0
   27.6216    1.2920   13.6664 C   0  0  0  0  0  0  0  0  0  0  0  0
   27.8992    2.5835   13.8571 C   0  0  0  0  0  0  0  0  0  0  0  0
   25.6676    2.1250   12.8074 C   0  0  0  0  0  0  0  0  0  0  0  0
   26.5541    3.5651   13.2908 S   0  0  0  0  0  0  0  0  0  0  0  0
 18 24  1  0
 19 18  1  0
  1  4  1  0
  1  2  1  0
 28 27  1  0
  4  9  2  0
  5 11  1  0
  5  8  2  0
 29 28  1  0
 30 32  1  0
 30 29  2  0
 31 28  2  0
  2 17  1  0
 17 25  1  0
 20 18  2  0
 20 21  1  0
 21 22  2  0
 22 23  1  0
 24 23  2  0
 27  1  1  0
  6  7  2  0
  6  4  1  0
  7  5  1  0
 10 11  1  0
 10 14  1  0
 14 16  1  0
 14 15  1  0
 16 15  1  0
  9  8  1  0
 25 20  1  0
 26 25  1  0
 26 19  2  0
 11 13  1  0
  3  2  2  0
 12 10  2  0
 32 31  1  0
M  END
> <minimizedAffinity>
-7.04569

> <CNNscore>
0.1844961494

> <CNNaffinity>
6.1192317009

> <CNN_VS>
1.1289746761

> <CNNaffinity_variance>
0.2690829337

$$$$
Y6J


 32 36  0  0  0  0  0  0  0  0999 V2000
   25.7197   -2.7025   15.0301 N   0  0  0  0  0  0  0  0  0  0  0  0
   25.0028   -1.7807   15.7050 C   0  0  0  0  0  0  0  0  0  0  0  0
   24.8888   -1.8644   16.9093 O   0  0  0  0  0  0  0  0  0  0  0  0
   26.2484   -3.8093   15.7057 C   0  0  0  0  0  0  0  0  0  0  0  0
   27.2959   -5.9961   17.0431 C   0  0  0  0  0  0  0  0  0  0  0  0
   27.5287   -3.7474   16.2416 C   0  0  0  0  0  0  0  0  0  0  0  0
   28.0506   -4.8383   16.9085 C   0  0  0  0  0  0  0  0  0  0  0  0
   26.0142   -6.0558   16.5107 C   0  0  0  0  0  0  0  0  0  0  0  0
   25.4925   -4.9658   15.8450 C   0  0  0  0  0  0  0  0  0  0  0  0
   27.9211   -7.0907   19.0632 C   0  0  0  0  0  0  0  0  0  0  0  0
   27.8263   -7.1024   17.7188 N   0  0  0  0  0  0  0  0  0  0  0  0
   27.4704   -6.1574   19.6940 O   0  0  0  0  0  0  0  0  0  0  0  0
   28.1252   -7.8776   17.2185 H   0  0  0  0  0  0  0  0  0  0  0  0
   28.5868   -8.2350   19.7818 C   0  0  0  0  0  0  0  0  0  0  0  0
   27.8637   -8.8249   20.9935 C   0  0  0  0  0  0  0  0  0  0  0  0
   29.1170   -7.9703   21.1927 C   0  0  0  0  0  0  0  0  0  0  0  0
   24.3442   -0.6467   14.9623 C   0  0  0  0  0  0  0  0  0  0  0  0
   25.0245    2.4158   16.8337 C   0  0  0  0  0  0  0  0  0  0  0  0
   25.8713    2.5174   15.7897 N   0  0  0  0  0  0  0  0  0  0  0  0
   24.3159    1.2107   16.6933 C   0  0  0  0  0  0  0  0  0  0  0  0
   23.3680    0.8482   17.6453 C   0  0  0  0  0  0  0  0  0  0  0  0
   23.1308    1.6674   18.7135 C   0  0  0  0  0  0  0  0  0  0  0  0
   23.8282    2.8594   18.8582 C   0  0  0  0  0  0  0  0  0  0  0  0
   24.7617    3.2379   17.9387 C   0  0  0  0  0  0  0  0  0  0  0  0
   24.7782    0.6288   15.5360 N   0  0  0  0  0  0  0  0  0  0  0  0
   25.7510    1.4960   15.0164 N   0  0  0  0  0  0  0  0  0  0  0  0
   25.9430   -2.5452   13.5911 C   0  0  0  0  0  0  0  0  0  0  0  0
   27.2506   -1.8309   13.3611 C   0  0  0  0  0  0  0  0  0  0  0  0
   28.4762   -2.4548   13.5142 C   0  0  0  0  0  0  0  0  0  0  0  0
   29.5354   -1.6799   13.2716 C   0  0  0  0  0  0  0  0  0  0  0  0
   27.3128   -0.5518   12.9897 C   0  0  0  0  0  0  0  0  0  0  0  0
   28.9954   -0.0671   12.8235 S   0  0  0  0  0  0  0  0  0  0  0  0
 18 24  1  0
 19 18  1  0
  1  4  1  0
  1  2  1  0
 28 27  1  0
  4  9  2  0
  5 11  1  0
  5  8  2  0
 29 28  1  0
 30 32  1  0
 30 29  2  0
 31 28  2  0
  2 17  1  0
 17 25  1  0
 20 18  2  0
 20 21  1  0
 21 22  2  0
 22 23  1  0
 24 23  2  0
 27  1  1  0
  6  7  2  0
  6  4  1  0
  7  5  1  0
 10 11  1  0
 10 14  1  0
 14 16  1  0
 14 15  1  0
 16 15  1  0
  9  8  1  0
 25 20  1  0
 26 25  1  0
 26 19  2  0
 11 13  1  0
  3  2  2  0
 12 10  2  0
 32 31  1  0
M  END
> <minimizedAffinity>
-6.71781

> <CNNscore>
0.1830686778

> <CNNaffinity>
5.7706794739

> <CNN_VS>
1.0564306974

> <CNNaffinity_variance>
0.2505141199

$$$$
Y6J


 32 36  0  0  0  0  0  0  0  0999 V2000
   28.2730   -3.4993   14.4769 N   0  0  0  0  0  0  0  0  0  0  0  0
   28.5415   -2.2505   14.0436 C   0  0  0  0  0  0  0  0  0  0  0  0
   29.4968   -1.6482   14.4854 O   0  0  0  0  0  0  0  0  0  0  0  0
   29.0369   -4.0616   15.5070 C   0  0  0  0  0  0  0  0  0  0  0  0
   30.5458   -5.1722   17.5461 C   0  0  0  0  0  0  0  0  0  0  0  0
   29.0160   -3.4934   16.7746 C   0  0  0  0  0  0  0  0  0  0  0  0
   29.7687   -4.0477   17.7911 C   0  0  0  0  0  0  0  0  0  0  0  0
   30.5628   -5.7423   16.2795 C   0  0  0  0  0  0  0  0  0  0  0  0
   29.8104   -5.1889   15.2640 C   0  0  0  0  0  0  0  0  0  0  0  0
   30.7639   -6.6518   19.3989 C   0  0  0  0  0  0  0  0  0  0  0  0
   31.3095   -5.7331   18.5774 N   0  0  0  0  0  0  0  0  0  0  0  0
   29.6379   -7.0547   19.1940 O   0  0  0  0  0  0  0  0  0  0  0  0
   32.2322   -5.4603   18.7000 H   0  0  0  0  0  0  0  0  0  0  0  0
   31.5510   -7.1770   20.5709 C   0  0  0  0  0  0  0  0  0  0  0  0
   30.9304   -8.3117   21.3872 C   0  0  0  0  0  0  0  0  0  0  0  0
   31.0016   -6.8997   21.9720 C   0  0  0  0  0  0  0  0  0  0  0  0
   27.6547   -1.6044   13.0103 C   0  0  0  0  0  0  0  0  0  0  0  0
   24.6515   -0.7074   14.8864 C   0  0  0  0  0  0  0  0  0  0  0  0
   24.1479   -1.3867   13.8366 N   0  0  0  0  0  0  0  0  0  0  0  0
   26.0490   -0.6772   14.7451 C   0  0  0  0  0  0  0  0  0  0  0  0
   26.8289   -0.0288   15.6977 C   0  0  0  0  0  0  0  0  0  0  0  0
   26.2307    0.5762   16.7674 C   0  0  0  0  0  0  0  0  0  0  0  0
   24.8499    0.5505   16.9125 C   0  0  0  0  0  0  0  0  0  0  0  0
   24.0632   -0.0791   15.9933 C   0  0  0  0  0  0  0  0  0  0  0  0
   26.3303   -1.3636   13.5869 N   0  0  0  0  0  0  0  0  0  0  0  0
   25.0977   -1.7830   13.0643 N   0  0  0  0  0  0  0  0  0  0  0  0
   27.1817   -4.2650   13.8700 C   0  0  0  0  0  0  0  0  0  0  0  0
   26.3145   -4.8498   14.9558 C   0  0  0  0  0  0  0  0  0  0  0  0
   26.1636   -6.2137   15.1337 C   0  0  0  0  0  0  0  0  0  0  0  0
   25.3610   -6.5636   16.1410 C   0  0  0  0  0  0  0  0  0  0  0  0
   25.6396   -4.0914   15.8202 C   0  0  0  0  0  0  0  0  0  0  0  0
   24.7424   -5.1189   16.9308 S   0  0  0  0  0  0  0  0  0  0  0  0
 18 24  1  0
 19 18  1  0
  1  4  1  0
  1  2  1  0
 28 27  1  0
  4  9  2  0
  5 11  1  0
  5  8  2  0
 29 28  1  0
 30 32  1  0
 30 29  2  0
 31 28  2  0
  2 17  1  0
 17 25  1  0
 20 18  2  0
 20 21  1  0
 21 22  2  0
 22 23  1  0
 24 23  2  0
 27  1  1  0
  6  7  2  0
  6  4  1  0
  7  5  1  0
 10 11  1  0
 10 14  1  0
 14 16  1  0
 14 15  1  0
 16 15  1  0
  9  8  1  0
 25 20  1  0
 26 25  1  0
 26 19  2  0
 11 13  1  0
  3  2  2  0
 12 10  2  0
 32 31  1  0
M  END
> <minimizedAffinity>
-5.87553

> <CNNscore>
0.1827368140

> <CNNaffinity>
5.5423216820

> <CNN_VS>
1.0127861500

> <CNNaffinity_variance>
0.5116578341

$$$$
Y6J


 32 36  0  0  0  0  0  0  0  0999 V2000
   26.0197   -2.7898   14.7569 N   0  0  0  0  0  0  0  0  0  0  0  0
   25.2276   -1.8020   15.2217 C   0  0  0  0  0  0  0  0  0  0  0  0
   24.9433   -1.7567   16.3996 O   0  0  0  0  0  0  0  0  0  0  0  0
   26.4320   -3.8174   15.6141 C   0  0  0  0  0  0  0  0  0  0  0  0
   27.2494   -5.8479   17.3104 C   0  0  0  0  0  0  0  0  0  0  0  0
   27.6947   -3.7734   16.1917 C   0  0  0  0  0  0  0  0  0  0  0  0
   28.1018   -4.7862   17.0376 C   0  0  0  0  0  0  0  0  0  0  0  0
   25.9852   -5.8892   16.7359 C   0  0  0  0  0  0  0  0  0  0  0  0
   25.5783   -4.8770   15.8913 C   0  0  0  0  0  0  0  0  0  0  0  0
   27.5660   -6.7206   19.5031 C   0  0  0  0  0  0  0  0  0  0  0  0
   27.6633   -6.8752   18.1677 N   0  0  0  0  0  0  0  0  0  0  0  0
   27.0427   -5.7264   19.9611 O   0  0  0  0  0  0  0  0  0  0  0  0
   28.0200   -7.6986   17.7997 H   0  0  0  0  0  0  0  0  0  0  0  0
   28.1074   -7.7810   20.4259 C   0  0  0  0  0  0  0  0  0  0  0  0
   27.1067   -8.5244   21.3119 C   0  0  0  0  0  0  0  0  0  0  0  0
   28.0605   -7.4998   21.9294 C   0  0  0  0  0  0  0  0  0  0  0  0
   24.6965   -0.7545   14.2770 C   0  0  0  0  0  0  0  0  0  0  0  0
   24.4164    2.5127   15.8865 C   0  0  0  0  0  0  0  0  0  0  0  0
   23.3385    1.8588   16.3637 N   0  0  0  0  0  0  0  0  0  0  0  0
   25.0994    1.6385   15.0243 C   0  0  0  0  0  0  0  0  0  0  0  0
   26.2595    2.0619   14.3832 C   0  0  0  0  0  0  0  0  0  0  0  0
   26.7293    3.3278   14.5957 C   0  0  0  0  0  0  0  0  0  0  0  0
   26.0586    4.1968   15.4461 C   0  0  0  0  0  0  0  0  0  0  0  0
   24.9200    3.8059   16.0872 C   0  0  0  0  0  0  0  0  0  0  0  0
   24.3837    0.4640   15.0266 N   0  0  0  0  0  0  0  0  0  0  0  0
   23.2922    0.6655   15.8847 N   0  0  0  0  0  0  0  0  0  0  0  0
   26.4464   -2.7868   13.3557 C   0  0  0  0  0  0  0  0  0  0  0  0
   27.6652   -1.9125   13.2040 C   0  0  0  0  0  0  0  0  0  0  0  0
   27.6113   -0.6536   12.6324 C   0  0  0  0  0  0  0  0  0  0  0  0
   28.7802   -0.0119   12.5751 C   0  0  0  0  0  0  0  0  0  0  0  0
   28.8753   -2.2924   13.6155 C   0  0  0  0  0  0  0  0  0  0  0  0
   30.0414   -1.0216   13.2705 S   0  0  0  0  0  0  0  0  0  0  0  0
 18 24  1  0
 19 18  1  0
  1  4  1  0
  1  2  1  0
 28 27  1  0
  4  9  2  0
  5 11  1  0
  5  8  2  0
 29 28  1  0
 30 32  1  0
 30 29  2  0
 31 28  2  0
  2 17  1  0
 17 25  1  0
 20 18  2  0
 20 21  1  0
 21 22  2  0
 22 23  1  0
 24 23  2  0
 27  1  1  0
  6  7  2  0
  6  4  1  0
  7  5  1  0
 10 11  1  0
 10 14  1  0
 14 16  1  0
 14 15  1  0
 16 15  1  0
  9  8  1  0
 25 20  1  0
 26 25  1  0
 26 19  2  0
 11 13  1  0
  3  2  2  0
 12 10  2  0
 32 31  1  0
M  END
> <minimizedAffinity>
-7.37970

> <CNNscore>
0.1764607728

> <CNNaffinity>
5.9906754494

> <CNN_VS>
1.0571192503

> <CNNaffinity_variance>
0.1398693919

$$$$
Y6J


 32 36  0  0  0  0  0  0  0  0999 V2000
   25.6037    0.3161   15.1289 N   0  0  0  0  0  0  0  0  0  0  0  0
   25.1957   -0.9231   15.4710 C   0  0  0  0  0  0  0  0  0  0  0  0
   24.5901   -1.0973   16.5069 O   0  0  0  0  0  0  0  0  0  0  0  0
   25.4158    1.3838   16.0152 C   0  0  0  0  0  0  0  0  0  0  0  0
   25.0460    3.4940   17.7698 C   0  0  0  0  0  0  0  0  0  0  0  0
   25.7386    1.2347   17.3582 C   0  0  0  0  0  0  0  0  0  0  0  0
   25.5540    2.2874   18.2328 C   0  0  0  0  0  0  0  0  0  0  0  0
   24.7275    3.6438   16.4260 C   0  0  0  0  0  0  0  0  0  0  0  0
   24.9124    2.5923   15.5521 C   0  0  0  0  0  0  0  0  0  0  0  0
   25.8875    5.3766   18.9603 C   0  0  0  0  0  0  0  0  0  0  0  0
   24.8583    4.5608   18.6576 N   0  0  0  0  0  0  0  0  0  0  0  0
   26.9549    5.2383   18.4002 O   0  0  0  0  0  0  0  0  0  0  0  0
   23.9864    4.7126   19.0546 H   0  0  0  0  0  0  0  0  0  0  0  0
   25.7130    6.4585   19.9938 C   0  0  0  0  0  0  0  0  0  0  0  0
   26.9635    6.9389   20.7318 C   0  0  0  0  0  0  0  0  0  0  0  0
   25.9303    6.0767   21.4597 C   0  0  0  0  0  0  0  0  0  0  0  0
   25.4922   -2.0908   14.5653 C   0  0  0  0  0  0  0  0  0  0  0  0
   28.6667   -3.8563   14.9515 C   0  0  0  0  0  0  0  0  0  0  0  0
   28.6324   -3.0739   16.0487 N   0  0  0  0  0  0  0  0  0  0  0  0
   27.4947   -3.6123   14.2160 C   0  0  0  0  0  0  0  0  0  0  0  0
   27.2714   -4.2903   13.0215 C   0  0  0  0  0  0  0  0  0  0  0  0
   28.1945   -5.1913   12.5693 C   0  0  0  0  0  0  0  0  0  0  0  0
   29.3550   -5.4364   13.2913 C   0  0  0  0  0  0  0  0  0  0  0  0
   29.5972   -4.7858   14.4653 C   0  0  0  0  0  0  0  0  0  0  0  0
   26.7868   -2.6717   14.9272 N   0  0  0  0  0  0  0  0  0  0  0  0
   27.5521   -2.3751   16.0650 N   0  0  0  0  0  0  0  0  0  0  0  0
   26.2442    0.5430   13.8312 C   0  0  0  0  0  0  0  0  0  0  0  0
   27.7388    0.4117   13.9793 C   0  0  0  0  0  0  0  0  0  0  0  0
   28.4420    1.0255   15.0008 C   0  0  0  0  0  0  0  0  0  0  0  0
   29.7585    0.8069   14.9871 C   0  0  0  0  0  0  0  0  0  0  0  0
   28.4816   -0.3091   13.1387 C   0  0  0  0  0  0  0  0  0  0  0  0
   30.1703   -0.2251   13.6236 S   0  0  0  0  0  0  0  0  0  0  0  0
 18 24  1  0
 19 18  1  0
  1  4  1  0
  1  2  1  0
 28 27  1  0
  4  9  2  0
  5 11  1  0
  5  8  2  0
 29 28  1  0
 30 32  1  0
 30 29  2  0
 31 28  2  0
  2 17  1  0
 17 25  1  0
 20 18  2  0
 20 21  1  0
 21 22  2  0
 22 23  1  0
 24 23  2  0
 27  1  1  0
  6  7  2  0
  6  4  1  0
  7  5  1  0
 10 11  1  0
 10 14  1  0
 14 16  1  0
 14 15  1  0
 16 15  1  0
  9  8  1  0
 25 20  1  0
 26 25  1  0
 26 19  2  0
 11 13  1  0
  3  2  2  0
 12 10  2  0
 32 31  1  0
M  END
> <minimizedAffinity>
-5.84973

> <CNNscore>
0.1648392528

> <CNNaffinity>
5.6056094170

> <CNN_VS>
0.9240244627

> <CNNaffinity_variance>
0.4484623969

$$$$
