Y6J


 32 36  0  0  0  0  0  0  0  0999 V2000
   25.5609   -0.3582   15.1066 N   0  0  0  0  0  0  0  0  0  0  0  0
   24.6505   -0.6424   16.0604 C   0  0  0  0  0  0  0  0  0  0  0  0
   24.8918   -1.4874   16.8959 O   0  0  0  0  0  0  0  0  0  0  0  0
   26.7413   -1.1067   15.0212 C   0  0  0  0  0  0  0  0  0  0  0  0
   29.0770   -2.5847   14.8539 C   0  0  0  0  0  0  0  0  0  0  0  0
   27.9720   -0.4787   15.1659 C   0  0  0  0  0  0  0  0  0  0  0  0
   29.1366   -1.2163   15.0824 C   0  0  0  0  0  0  0  0  0  0  0  0
   27.8459   -3.2127   14.7136 C   0  0  0  0  0  0  0  0  0  0  0  0
   26.6824   -2.4759   14.7977 C   0  0  0  0  0  0  0  0  0  0  0  0
   30.2403   -4.6555   15.0216 C   0  0  0  0  0  0  0  0  0  0  0  0
   30.2586   -3.3319   14.7685 N   0  0  0  0  0  0  0  0  0  0  0  0
   29.1866   -5.2156   15.2414 O   0  0  0  0  0  0  0  0  0  0  0  0
   31.0906   -2.8960   14.5265 H   0  0  0  0  0  0  0  0  0  0  0  0
   31.5270   -5.4386   15.0324 C   0  0  0  0  0  0  0  0  0  0  0  0
   31.8005   -6.3314   16.2437 C   0  0  0  0  0  0  0  0  0  0  0  0
   32.5909   -5.0350   16.0556 C   0  0  0  0  0  0  0  0  0  0  0  0
   23.3339    0.0907   16.0877 C   0  0  0  0  0  0  0  0  0  0  0  0
   22.6947    0.9603   19.5775 C   0  0  0  0  0  0  0  0  0  0  0  0
   21.7790   -0.0008   19.3437 N   0  0  0  0  0  0  0  0  0  0  0  0
   23.4251    1.1519   18.3926 C   0  0  0  0  0  0  0  0  0  0  0  0
   24.4429    2.0998   18.3504 C   0  0  0  0  0  0  0  0  0  0  0  0
   24.7271    2.8408   19.4633 C   0  0  0  0  0  0  0  0  0  0  0  0
   24.0086    2.6567   20.6371 C   0  0  0  0  0  0  0  0  0  0  0  0
   23.0070    1.7335   20.7048 C   0  0  0  0  0  0  0  0  0  0  0  0
   22.9040    0.2686   17.4762 N   0  0  0  0  0  0  0  0  0  0  0  0
   21.8760   -0.4247   18.1327 N   0  0  0  0  0  0  0  0  0  0  0  0
   25.3127    0.7321   14.1605 C   0  0  0  0  0  0  0  0  0  0  0  0
   25.2494    0.1769   12.7602 C   0  0  0  0  0  0  0  0  0  0  0  0
   25.9319    0.7494   11.7014 C   0  0  0  0  0  0  0  0  0  0  0  0
   25.7683    0.1335   10.5286 C   0  0  0  0  0  0  0  0  0  0  0  0
   24.5356   -0.9058   12.4502 C   0  0  0  0  0  0  0  0  0  0  0  0
   24.6998   -1.2485   10.7329 S   0  0  0  0  0  0  0  0  0  0  0  0
 18 24  1  0
 19 18  1  0
  1  4  1  0
  1  2  1  0
 28 27  1  0
  4  9  2  0
  5 11  1  0
  5  8  2  0
 29 28  1  0
 30 32  1  0
 30 29  2  0
 31 28  2  0
  2 17  1  0
 17 25  1  0
 20 18  2  0
 20 21  1  0
 21 22  2  0
 22 23  1  0
 24 23  2  0
 27  1  1  0
  6  7  2  0
  6  4  1  0
  7  5  1  0
 10 11  1  0
 10 14  1  0
 14 16  1  0
 14 15  1  0
 16 15  1  0
  9  8  1  0
 25 20  1  0
 26 25  1  0
 26 19  2  0
 11 13  1  0
  3  2  2  0
 12 10  2  0
 32 31  1  0
M  END
> <minimizedAffinity>
-7.37888

> <CNNscore>
0.7855991721

> <CNNaffinity>
6.7377696037

> <CNN_VS>
5.2931861877

> <CNNaffinity_variance>
0.0384308733

$$$$
Y6J


 32 36  0  0  0  0  0  0  0  0999 V2000
   25.5136   -1.0958   15.2171 N   0  0  0  0  0  0  0  0  0  0  0  0
   25.6918    0.0015   15.9809 C   0  0  0  0  0  0  0  0  0  0  0  0
   26.6567    0.0816   16.7109 O   0  0  0  0  0  0  0  0  0  0  0  0
   26.3874   -2.1831   15.3403 C   0  0  0  0  0  0  0  0  0  0  0  0
   28.1177   -4.3314   15.5837 C   0  0  0  0  0  0  0  0  0  0  0  0
   27.6944   -2.0772   14.8814 C   0  0  0  0  0  0  0  0  0  0  0  0
   28.5569   -3.1489   15.0030 C   0  0  0  0  0  0  0  0  0  0  0  0
   26.8119   -4.4351   16.0463 C   0  0  0  0  0  0  0  0  0  0  0  0
   25.9504   -3.3642   15.9253 C   0  0  0  0  0  0  0  0  0  0  0  0
   29.7830   -5.5299   16.7919 C   0  0  0  0  0  0  0  0  0  0  0  0
   28.9928   -5.4181   15.7059 N   0  0  0  0  0  0  0  0  0  0  0  0
   29.6769   -4.7352   17.7026 O   0  0  0  0  0  0  0  0  0  0  0  0
   29.0296   -6.0908   15.0082 H   0  0  0  0  0  0  0  0  0  0  0  0
   30.7977   -6.6401   16.8745 C   0  0  0  0  0  0  0  0  0  0  0  0
   31.8516   -6.5532   17.9794 C   0  0  0  0  0  0  0  0  0  0  0  0
   32.2477   -6.2992   16.5236 C   0  0  0  0  0  0  0  0  0  0  0  0
   24.6919    1.1280   15.9264 C   0  0  0  0  0  0  0  0  0  0  0  0
   22.5187    0.9467   18.8569 C   0  0  0  0  0  0  0  0  0  0  0  0
   21.8198    0.2586   17.9321 N   0  0  0  0  0  0  0  0  0  0  0  0
   23.7087    1.3864   18.2531 C   0  0  0  0  0  0  0  0  0  0  0  0
   24.6247    2.1331   18.9877 C   0  0  0  0  0  0  0  0  0  0  0  0
   24.3617    2.4355   20.2945 C   0  0  0  0  0  0  0  0  0  0  0  0
   23.1871    2.0045   20.8967 C   0  0  0  0  0  0  0  0  0  0  0  0
   22.2735    1.2705   20.1989 C   0  0  0  0  0  0  0  0  0  0  0  0
   23.6725    0.9250   16.9580 N   0  0  0  0  0  0  0  0  0  0  0  0
   22.4641    0.2260   16.8188 N   0  0  0  0  0  0  0  0  0  0  0  0
   24.4054   -1.1491   14.2608 C   0  0  0  0  0  0  0  0  0  0  0  0
   24.8800   -0.6629   12.9149 C   0  0  0  0  0  0  0  0  0  0  0  0
   25.5137    0.5553   12.7450 C   0  0  0  0  0  0  0  0  0  0  0  0
   25.8698    0.8331   11.4891 C   0  0  0  0  0  0  0  0  0  0  0  0
   24.7253   -1.3772   11.7997 C   0  0  0  0  0  0  0  0  0  0  0  0
   25.3946   -0.4922   10.4350 S   0  0  0  0  0  0  0  0  0  0  0  0
 18 24  1  0
 19 18  1  0
  1  4  1  0
  1  2  1  0
 28 27  1  0
  4  9  2  0
  5 11  1  0
  5  8  2  0
 29 28  1  0
 30 32  1  0
 30 29  2  0
 31 28  2  0
  2 17  1  0
 17 25  1  0
 20 18  2  0
 20 21  1  0
 21 22  2  0
 22 23  1  0
 24 23  2  0
 27  1  1  0
  6  7  2  0
  6  4  1  0
  7  5  1  0
 10 11  1  0
 10 14  1  0
 14 16  1  0
 14 15  1  0
 16 15  1  0
  9  8  1  0
 25 20  1  0
 26 25  1  0
 26 19  2  0
 11 13  1  0
  3  2  2  0
 12 10  2  0
 32 31  1  0
M  END
> <minimizedAffinity>
-7.24346

> <CNNscore>
0.7730643153

> <CNNaffinity>
6.8795495033

> <CNN_VS>
5.3183341026

> <CNNaffinity_variance>
0.0203766003

$$$$
Y6J


 32 36  0  0  0  0  0  0  0  0999 V2000
   24.8019    1.2138   13.9314 N   0  0  0  0  0  0  0  0  0  0  0  0
   24.2759    1.2837   15.1715 C   0  0  0  0  0  0  0  0  0  0  0  0
   24.0034    2.3621   15.6543 O   0  0  0  0  0  0  0  0  0  0  0  0
   25.1252    2.3888   13.2417 C   0  0  0  0  0  0  0  0  0  0  0  0
   25.7628    4.7116   11.8756 C   0  0  0  0  0  0  0  0  0  0  0  0
   24.9192    2.4662   11.8700 C   0  0  0  0  0  0  0  0  0  0  0  0
   25.2374    3.6249   11.1892 C   0  0  0  0  0  0  0  0  0  0  0  0
   25.9645    4.6351   13.2479 C   0  0  0  0  0  0  0  0  0  0  0  0
   25.6461    3.4777   13.9282 C   0  0  0  0  0  0  0  0  0  0  0  0
   27.0189    6.7247   11.6771 C   0  0  0  0  0  0  0  0  0  0  0  0
   26.0861    5.8860   11.1843 N   0  0  0  0  0  0  0  0  0  0  0  0
   27.6386    6.4221   12.6754 O   0  0  0  0  0  0  0  0  0  0  0  0
   25.6382    6.0955   10.3498 H   0  0  0  0  0  0  0  0  0  0  0  0
   27.2912    8.0370   10.9895 C   0  0  0  0  0  0  0  0  0  0  0  0
   28.7477    8.3799   10.6731 C   0  0  0  0  0  0  0  0  0  0  0  0
   28.0146    9.1192   11.7941 C   0  0  0  0  0  0  0  0  0  0  0  0
   24.0265    0.0214   15.9563 C   0  0  0  0  0  0  0  0  0  0  0  0
   22.4157    0.9396   19.1037 C   0  0  0  0  0  0  0  0  0  0  0  0
   21.3725    0.5481   18.3452 N   0  0  0  0  0  0  0  0  0  0  0  0
   23.5805    0.8075   18.3291 C   0  0  0  0  0  0  0  0  0  0  0  0
   24.8160    1.1504   18.8699 C   0  0  0  0  0  0  0  0  0  0  0  0
   24.8901    1.6147   20.1533 C   0  0  0  0  0  0  0  0  0  0  0  0
   23.7426    1.7482   20.9237 C   0  0  0  0  0  0  0  0  0  0  0  0
   22.5199    1.4181   20.4176 C   0  0  0  0  0  0  0  0  0  0  0  0
   23.1736    0.3239   17.1076 N   0  0  0  0  0  0  0  0  0  0  0  0
   21.7797    0.1824   17.1806 N   0  0  0  0  0  0  0  0  0  0  0  0
   25.0354   -0.0911   13.3086 C   0  0  0  0  0  0  0  0  0  0  0  0
   26.1708   -0.7881   14.0143 C   0  0  0  0  0  0  0  0  0  0  0  0
   27.3202   -0.1261   14.4083 C   0  0  0  0  0  0  0  0  0  0  0  0
   28.2269   -0.8903   15.0209 C   0  0  0  0  0  0  0  0  0  0  0  0
   26.1405   -2.0879   14.3103 C   0  0  0  0  0  0  0  0  0  0  0  0
   27.6325   -2.5425   15.1232 S   0  0  0  0  0  0  0  0  0  0  0  0
 18 24  1  0
 19 18  1  0
  1  4  1  0
  1  2  1  0
 28 27  1  0
  4  9  2  0
  5 11  1  0
  5  8  2  0
 29 28  1  0
 30 32  1  0
 30 29  2  0
 31 28  2  0
  2 17  1  0
 17 25  1  0
 20 18  2  0
 20 21  1  0
 21 22  2  0
 22 23  1  0
 24 23  2  0
 27  1  1  0
  6  7  2  0
  6  4  1  0
  7  5  1  0
 10 11  1  0
 10 14  1  0
 14 16  1  0
 14 15  1  0
 16 15  1  0
  9  8  1  0
 25 20  1  0
 26 25  1  0
 26 19  2  0
 11 13  1  0
  3  2  2  0
 12 10  2  0
 32 31  1  0
M  END
> <minimizedAffinity>
-7.66477

> <CNNscore>
0.5854763389

> <CNNaffinity>
6.4290089607

> <CNN_VS>
3.7640326023

> <CNNaffinity_variance>
0.7112790942

$$$$
Y6J


 32 36  0  0  0  0  0  0  0  0999 V2000
   24.1399    0.1873   17.6277 N   0  0  0  0  0  0  0  0  0  0  0  0
   23.9087    0.7787   16.4377 C   0  0  0  0  0  0  0  0  0  0  0  0
   23.7782    1.9826   16.3744 O   0  0  0  0  0  0  0  0  0  0  0  0
   24.1304    0.9507   18.8016 C   0  0  0  0  0  0  0  0  0  0  0  0
   24.1140    2.4618   21.1221 C   0  0  0  0  0  0  0  0  0  0  0  0
   25.2924    1.5823   19.2269 C   0  0  0  0  0  0  0  0  0  0  0  0
   25.2836    2.3358   20.3842 C   0  0  0  0  0  0  0  0  0  0  0  0
   22.9514    1.8334   20.6939 C   0  0  0  0  0  0  0  0  0  0  0  0
   22.9600    1.0812   19.5373 C   0  0  0  0  0  0  0  0  0  0  0  0
   24.4213    2.6539   23.4754 C   0  0  0  0  0  0  0  0  0  0  0  0
   24.1062    3.2253   22.2961 N   0  0  0  0  0  0  0  0  0  0  0  0
   24.7929    1.4994   23.5088 O   0  0  0  0  0  0  0  0  0  0  0  0
   23.8742    4.1664   22.2601 H   0  0  0  0  0  0  0  0  0  0  0  0
   24.3113    3.4478   24.7508 C   0  0  0  0  0  0  0  0  0  0  0  0
   24.1135    4.9593   24.6273 C   0  0  0  0  0  0  0  0  0  0  0  0
   25.4599    4.4000   25.0913 C   0  0  0  0  0  0  0  0  0  0  0  0
   23.8132   -0.0569   15.1870 C   0  0  0  0  0  0  0  0  0  0  0  0
   25.4029    1.1526   12.1287 C   0  0  0  0  0  0  0  0  0  0  0  0
   25.5413    2.2014   12.9641 N   0  0  0  0  0  0  0  0  0  0  0  0
   24.7298    0.1361   12.8270 C   0  0  0  0  0  0  0  0  0  0  0  0
   24.4479   -1.0708   12.1944 C   0  0  0  0  0  0  0  0  0  0  0  0
   24.8277   -1.2614   10.8953 C   0  0  0  0  0  0  0  0  0  0  0  0
   25.4926   -0.2605   10.1995 C   0  0  0  0  0  0  0  0  0  0  0  0
   25.7815    0.9311   10.7969 C   0  0  0  0  0  0  0  0  0  0  0  0
   24.4923    0.6320   14.0876 N   0  0  0  0  0  0  0  0  0  0  0  0
   25.0245    1.9299   14.1108 N   0  0  0  0  0  0  0  0  0  0  0  0
   24.3992   -1.2529   17.6904 C   0  0  0  0  0  0  0  0  0  0  0  0
   25.7436   -1.5481   17.0752 C   0  0  0  0  0  0  0  0  0  0  0  0
   26.8841   -0.8363   17.4026 C   0  0  0  0  0  0  0  0  0  0  0  0
   27.9914   -1.2258   16.7674 C   0  0  0  0  0  0  0  0  0  0  0  0
   25.9239   -2.5185   16.1787 C   0  0  0  0  0  0  0  0  0  0  0  0
   27.6123   -2.5615   15.6876 S   0  0  0  0  0  0  0  0  0  0  0  0
 18 24  1  0
 19 18  1  0
  1  4  1  0
  1  2  1  0
 28 27  1  0
  4  9  2  0
  5 11  1  0
  5  8  2  0
 29 28  1  0
 30 32  1  0
 30 29  2  0
 31 28  2  0
  2 17  1  0
 17 25  1  0
 20 18  2  0
 20 21  1  0
 21 22  2  0
 22 23  1  0
 24 23  2  0
 27  1  1  0
  6  7  2  0
  6  4  1  0
  7  5  1  0
 10 11  1  0
 10 14  1  0
 14 16  1  0
 14 15  1  0
 16 15  1  0
  9  8  1  0
 25 20  1  0
 26 25  1  0
 26 19  2  0
 11 13  1  0
  3  2  2  0
 12 10  2  0
 32 31  1  0
M  END
> <minimizedAffinity>
-7.48660

> <CNNscore>
0.5797389150

> <CNNaffinity>
6.3591117859

> <CNN_VS>
3.6866245270

> <CNNaffinity_variance>
0.0793057010

$$$$
Y6J


 32 36  0  0  0  0  0  0  0  0999 V2000
   26.5666   -3.8682   15.4378 N   0  0  0  0  0  0  0  0  0  0  0  0
   26.0096   -2.6410   15.3829 C   0  0  0  0  0  0  0  0  0  0  0  0
   25.5186   -2.1533   16.3786 O   0  0  0  0  0  0  0  0  0  0  0  0
   26.4899   -4.6189   16.6174 C   0  0  0  0  0  0  0  0  0  0  0  0
   26.3357   -6.1046   18.9492 C   0  0  0  0  0  0  0  0  0  0  0  0
   25.2699   -5.1409   17.0285 C   0  0  0  0  0  0  0  0  0  0  0  0
   25.1935   -5.8818   18.1914 C   0  0  0  0  0  0  0  0  0  0  0  0
   27.5561   -5.5858   18.5353 C   0  0  0  0  0  0  0  0  0  0  0  0
   27.6325   -4.8462   17.3731 C   0  0  0  0  0  0  0  0  0  0  0  0
   27.1414   -6.6438   21.1239 C   0  0  0  0  0  0  0  0  0  0  0  0
   26.2572   -6.8553   20.1290 N   0  0  0  0  0  0  0  0  0  0  0  0
   27.9530   -5.7465   21.0324 O   0  0  0  0  0  0  0  0  0  0  0  0
   25.5655   -7.5277   20.2299 H   0  0  0  0  0  0  0  0  0  0  0  0
   27.1226   -7.5215   22.3481 C   0  0  0  0  0  0  0  0  0  0  0  0
   25.9135   -8.4377   22.5419 C   0  0  0  0  0  0  0  0  0  0  0  0
   26.0874   -7.2035   23.4292 C   0  0  0  0  0  0  0  0  0  0  0  0
   25.9981   -1.8762   14.0843 C   0  0  0  0  0  0  0  0  0  0  0  0
   24.5034    1.4563   14.0200 C   0  0  0  0  0  0  0  0  0  0  0  0
   24.0793    0.9689   15.2030 N   0  0  0  0  0  0  0  0  0  0  0  0
   25.2904    0.4665   13.4075 C   0  0  0  0  0  0  0  0  0  0  0  0
   25.8581    0.7051   12.1597 C   0  0  0  0  0  0  0  0  0  0  0  0
   25.6469    1.9026   11.5354 C   0  0  0  0  0  0  0  0  0  0  0  0
   24.8697    2.8846   12.1351 C   0  0  0  0  0  0  0  0  0  0  0  0
   24.3029    2.6760   13.3580 C   0  0  0  0  0  0  0  0  0  0  0  0
   25.3084   -0.5988   14.2771 N   0  0  0  0  0  0  0  0  0  0  0  0
   24.5315   -0.2222   15.3830 N   0  0  0  0  0  0  0  0  0  0  0  0
   27.2498   -4.4144   14.2629 C   0  0  0  0  0  0  0  0  0  0  0  0
   28.7413   -4.3017   14.4520 C   0  0  0  0  0  0  0  0  0  0  0  0
   29.5907   -5.3873   14.3312 C   0  0  0  0  0  0  0  0  0  0  0  0
   30.8822   -5.1150   14.5292 C   0  0  0  0  0  0  0  0  0  0  0  0
   29.3415   -3.1471   14.7430 C   0  0  0  0  0  0  0  0  0  0  0  0
   31.0751   -3.4047   14.8914 S   0  0  0  0  0  0  0  0  0  0  0  0
 18 24  1  0
 19 18  1  0
  1  4  1  0
  1  2  1  0
 28 27  1  0
  4  9  2  0
  5 11  1  0
  5  8  2  0
 29 28  1  0
 30 32  1  0
 30 29  2  0
 31 28  2  0
  2 17  1  0
 17 25  1  0
 20 18  2  0
 20 21  1  0
 21 22  2  0
 22 23  1  0
 24 23  2  0
 27  1  1  0
  6  7  2  0
  6  4  1  0
  7  5  1  0
 10 11  1  0
 10 14  1  0
 14 16  1  0
 14 15  1  0
 16 15  1  0
  9  8  1  0
 25 20  1  0
 26 25  1  0
 26 19  2  0
 11 13  1  0
  3  2  2  0
 12 10  2  0
 32 31  1  0
M  END
> <minimizedAffinity>
-7.30464

> <CNNscore>
0.4291676581

> <CNNaffinity>
6.0745620728

> <CNN_VS>
2.6070055962

> <CNNaffinity_variance>
0.1616988331

$$$$
Y6J


 32 36  0  0  0  0  0  0  0  0999 V2000
   25.2532   -0.4564   15.8977 N   0  0  0  0  0  0  0  0  0  0  0  0
   25.9832    0.5068   15.2989 C   0  0  0  0  0  0  0  0  0  0  0  0
   27.1762    0.3546   15.1434 O   0  0  0  0  0  0  0  0  0  0  0  0
   25.8873   -1.5866   16.4280 C   0  0  0  0  0  0  0  0  0  0  0  0
   27.1430   -3.8200   17.4786 C   0  0  0  0  0  0  0  0  0  0  0  0
   27.1358   -1.4646   17.0252 C   0  0  0  0  0  0  0  0  0  0  0  0
   27.7615   -2.5787   17.5489 C   0  0  0  0  0  0  0  0  0  0  0  0
   25.8928   -3.9406   16.8852 C   0  0  0  0  0  0  0  0  0  0  0  0
   25.2673   -2.8274   16.3624 C   0  0  0  0  0  0  0  0  0  0  0  0
   28.5250   -5.7407   17.2132 C   0  0  0  0  0  0  0  0  0  0  0  0
   27.7787   -4.9495   18.0092 N   0  0  0  0  0  0  0  0  0  0  0  0
   28.7150   -5.4291   16.0561 O   0  0  0  0  0  0  0  0  0  0  0  0
   27.6819   -5.1621   18.9505 H   0  0  0  0  0  0  0  0  0  0  0  0
   29.1219   -7.0113   17.7596 C   0  0  0  0  0  0  0  0  0  0  0  0
   29.4685   -7.0456   19.2488 C   0  0  0  0  0  0  0  0  0  0  0  0
   30.5851   -6.9694   18.2055 C   0  0  0  0  0  0  0  0  0  0  0  0
   25.3161    1.7716   14.8227 C   0  0  0  0  0  0  0  0  0  0  0  0
   25.3197    1.3207   11.1978 C   0  0  0  0  0  0  0  0  0  0  0  0
   25.5829    2.6362   11.3286 N   0  0  0  0  0  0  0  0  0  0  0  0
   25.1747    0.7837   12.4880 C   0  0  0  0  0  0  0  0  0  0  0  0
   24.8912   -0.5692   12.6487 C   0  0  0  0  0  0  0  0  0  0  0  0
   24.7551   -1.3696   11.5491 C   0  0  0  0  0  0  0  0  0  0  0  0
   24.8966   -0.8448   10.2713 C   0  0  0  0  0  0  0  0  0  0  0  0
   25.1754    0.4775   10.0868 C   0  0  0  0  0  0  0  0  0  0  0  0
   25.3680    1.8292   13.3604 N   0  0  0  0  0  0  0  0  0  0  0  0
   25.6198    2.9625   12.5727 N   0  0  0  0  0  0  0  0  0  0  0  0
   23.7982   -0.3179   15.9935 C   0  0  0  0  0  0  0  0  0  0  0  0
   23.4285    0.1482   17.3788 C   0  0  0  0  0  0  0  0  0  0  0  0
   24.3432    0.7355   18.2350 C   0  0  0  0  0  0  0  0  0  0  0  0
   23.8521    1.0907   19.4241 C   0  0  0  0  0  0  0  0  0  0  0  0
   22.1941    0.0303   17.8689 C   0  0  0  0  0  0  0  0  0  0  0  0
   22.1448    0.6757   19.5044 S   0  0  0  0  0  0  0  0  0  0  0  0
 18 24  1  0
 19 18  1  0
  1  4  1  0
  1  2  1  0
 28 27  1  0
  4  9  2  0
  5 11  1  0
  5  8  2  0
 29 28  1  0
 30 32  1  0
 30 29  2  0
 31 28  2  0
  2 17  1  0
 17 25  1  0
 20 18  2  0
 20 21  1  0
 21 22  2  0
 22 23  1  0
 24 23  2  0
 27  1  1  0
  6  7  2  0
  6  4  1  0
  7  5  1  0
 10 11  1  0
 10 14  1  0
 14 16  1  0
 14 15  1  0
 16 15  1  0
  9  8  1  0
 25 20  1  0
 26 25  1  0
 26 19  2  0
 11 13  1  0
  3  2  2  0
 12 10  2  0
 32 31  1  0
M  END
> <minimizedAffinity>
-6.82134

> <CNNscore>
0.3405952752

> <CNNaffinity>
6.1747059822

> <CNN_VS>
2.1030757427

> <CNNaffinity_variance>
0.2035020143

$$$$
Y6J


 32 36  0  0  0  0  0  0  0  0999 V2000
   26.9188   -0.7794   16.0950 N   0  0  0  0  0  0  0  0  0  0  0  0
   25.6656   -1.1012   15.7139 C   0  0  0  0  0  0  0  0  0  0  0  0
   25.3439   -2.2657   15.6102 O   0  0  0  0  0  0  0  0  0  0  0  0
   27.8755   -1.7861   16.2742 C   0  0  0  0  0  0  0  0  0  0  0  0
   29.7660   -3.7778   16.6312 C   0  0  0  0  0  0  0  0  0  0  0  0
   28.0331   -2.3782   17.5211 C   0  0  0  0  0  0  0  0  0  0  0  0
   28.9760   -3.3714   17.6985 C   0  0  0  0  0  0  0  0  0  0  0  0
   29.6049   -3.1882   15.3837 C   0  0  0  0  0  0  0  0  0  0  0  0
   28.6624   -2.1963   15.2062 C   0  0  0  0  0  0  0  0  0  0  0  0
   31.9815   -4.6082   16.3642 C   0  0  0  0  0  0  0  0  0  0  0  0
   30.7227   -4.7845   16.8122 N   0  0  0  0  0  0  0  0  0  0  0  0
   32.3084   -3.5452   15.8792 O   0  0  0  0  0  0  0  0  0  0  0  0
   30.4787   -5.6092   17.2607 H   0  0  0  0  0  0  0  0  0  0  0  0
   32.9814   -5.7303   16.4649 C   0  0  0  0  0  0  0  0  0  0  0  0
   33.0398   -6.7304   15.3093 C   0  0  0  0  0  0  0  0  0  0  0  0
   32.4359   -7.1478   16.6516 C   0  0  0  0  0  0  0  0  0  0  0  0
   24.6653   -0.0134   15.4177 C   0  0  0  0  0  0  0  0  0  0  0  0
   25.4386    1.1394   12.0388 C   0  0  0  0  0  0  0  0  0  0  0  0
   25.7020    2.2296   12.7867 N   0  0  0  0  0  0  0  0  0  0  0  0
   25.0046    0.1218   12.9050 C   0  0  0  0  0  0  0  0  0  0  0  0
   24.6576   -1.1244   12.3925 C   0  0  0  0  0  0  0  0  0  0  0  0
   24.7406   -1.3525   11.0474 C   0  0  0  0  0  0  0  0  0  0  0  0
   25.1681   -0.3508   10.1860 C   0  0  0  0  0  0  0  0  0  0  0  0
   25.5149    0.8790   10.6632 C   0  0  0  0  0  0  0  0  0  0  0  0
   25.0328    0.6601   14.1704 N   0  0  0  0  0  0  0  0  0  0  0  0
   25.4783    1.9829   14.0296 N   0  0  0  0  0  0  0  0  0  0  0  0
   27.2775    0.6229   16.3193 C   0  0  0  0  0  0  0  0  0  0  0  0
   27.3121    0.9014   17.8006 C   0  0  0  0  0  0  0  0  0  0  0  0
   28.4918    0.9428   18.5225 C   0  0  0  0  0  0  0  0  0  0  0  0
   28.3457    1.2022   19.8235 C   0  0  0  0  0  0  0  0  0  0  0  0
   26.2084    1.1315   18.5124 C   0  0  0  0  0  0  0  0  0  0  0  0
   26.6391    1.4103   20.1948 S   0  0  0  0  0  0  0  0  0  0  0  0
 18 24  1  0
 19 18  1  0
  1  4  1  0
  1  2  1  0
 28 27  1  0
  4  9  2  0
  5 11  1  0
  5  8  2  0
 29 28  1  0
 30 32  1  0
 30 29  2  0
 31 28  2  0
  2 17  1  0
 17 25  1  0
 20 18  2  0
 20 21  1  0
 21 22  2  0
 22 23  1  0
 24 23  2  0
 27  1  1  0
  6  7  2  0
  6  4  1  0
  7  5  1  0
 10 11  1  0
 10 14  1  0
 14 16  1  0
 14 15  1  0
 16 15  1  0
  9  8  1  0
 25 20  1  0
 26 25  1  0
 26 19  2  0
 11 13  1  0
  3  2  2  0
 12 10  2  0
 32 31  1  0
M  END
> <minimizedAffinity>
-5.67417

> <CNNscore>
0.3373089433

> <CNNaffinity>
5.8819956779

> <CNN_VS>
1.9840497971

> <CNNaffinity_variance>
0.0647007897

$$$$
Y6J


 32 36  0  0  0  0  0  0  0  0999 V2000
   25.6982    0.1393   17.7608 N   0  0  0  0  0  0  0  0  0  0  0  0
   25.5870    0.9437   16.6839 C   0  0  0  0  0  0  0  0  0  0  0  0
   26.5170    1.6492   16.3558 O   0  0  0  0  0  0  0  0  0  0  0  0
   26.8489    0.1917   18.5570 C   0  0  0  0  0  0  0  0  0  0  0  0
   29.1231    0.2969   20.1336 C   0  0  0  0  0  0  0  0  0  0  0  0
   26.9450    1.1322   19.5751 C   0  0  0  0  0  0  0  0  0  0  0  0
   28.0793    1.1841   20.3610 C   0  0  0  0  0  0  0  0  0  0  0  0
   29.0246   -0.6460   19.1182 C   0  0  0  0  0  0  0  0  0  0  0  0
   27.8911   -0.6983   18.3333 C   0  0  0  0  0  0  0  0  0  0  0  0
   30.2343   -0.0895   22.2037 C   0  0  0  0  0  0  0  0  0  0  0  0
   30.2735    0.3509   20.9305 N   0  0  0  0  0  0  0  0  0  0  0  0
   29.2261   -0.6099   22.6338 O   0  0  0  0  0  0  0  0  0  0  0  0
   31.0993    0.7053   20.5654 H   0  0  0  0  0  0  0  0  0  0  0  0
   31.4409    0.0650   23.0922 C   0  0  0  0  0  0  0  0  0  0  0  0
   31.4601   -0.7255   24.4013 C   0  0  0  0  0  0  0  0  0  0  0  0
   31.2476    0.7894   24.4262 C   0  0  0  0  0  0  0  0  0  0  0  0
   24.3070    0.9651   15.8884 C   0  0  0  0  0  0  0  0  0  0  0  0
   24.9144   -0.3654   12.5411 C   0  0  0  0  0  0  0  0  0  0  0  0
   24.5875   -1.4709   13.2397 N   0  0  0  0  0  0  0  0  0  0  0  0
   24.8643    0.7275   13.4226 C   0  0  0  0  0  0  0  0  0  0  0  0
   25.1647    2.0055   12.9612 C   0  0  0  0  0  0  0  0  0  0  0  0
   25.5075    2.1912   11.6511 C   0  0  0  0  0  0  0  0  0  0  0  0
   25.5594    1.1152   10.7751 C   0  0  0  0  0  0  0  0  0  0  0  0
   25.2687   -0.1471   11.2020 C   0  0  0  0  0  0  0  0  0  0  0  0
   24.4939    0.2157   14.6442 N   0  0  0  0  0  0  0  0  0  0  0  0
   24.3355   -1.1667   14.4643 N   0  0  0  0  0  0  0  0  0  0  0  0
   24.6144   -0.7870   18.0967 C   0  0  0  0  0  0  0  0  0  0  0  0
   23.5265   -0.0426   18.8284 C   0  0  0  0  0  0  0  0  0  0  0  0
   23.7972    0.9056   19.7991 C   0  0  0  0  0  0  0  0  0  0  0  0
   22.7200    1.4710   20.3482 C   0  0  0  0  0  0  0  0  0  0  0  0
   22.2313   -0.2447   18.5847 C   0  0  0  0  0  0  0  0  0  0  0  0
   21.2663    0.7936   19.6261 S   0  0  0  0  0  0  0  0  0  0  0  0
 18 24  1  0
 19 18  1  0
  1  4  1  0
  1  2  1  0
 28 27  1  0
  4  9  2  0
  5 11  1  0
  5  8  2  0
 29 28  1  0
 30 32  1  0
 30 29  2  0
 31 28  2  0
  2 17  1  0
 17 25  1  0
 20 18  2  0
 20 21  1  0
 21 22  2  0
 22 23  1  0
 24 23  2  0
 27  1  1  0
  6  7  2  0
  6  4  1  0
  7  5  1  0
 10 11  1  0
 10 14  1  0
 14 16  1  0
 14 15  1  0
 16 15  1  0
  9  8  1  0
 25 20  1  0
 26 25  1  0
 26 19  2  0
 11 13  1  0
  3  2  2  0
 12 10  2  0
 32 31  1  0
M  END
> <minimizedAffinity>
-6.42249

> <CNNscore>
0.3256545961

> <CNNaffinity>
5.5317349434

> <CNN_VS>
1.8014348745

> <CNNaffinity_variance>
0.4864312112

$$$$
Y6J


 32 36  0  0  0  0  0  0  0  0999 V2000
   25.4412    0.1818   17.6975 N   0  0  0  0  0  0  0  0  0  0  0  0
   25.2661    0.5768   16.4198 C   0  0  0  0  0  0  0  0  0  0  0  0
   26.0974    1.2776   15.8828 O   0  0  0  0  0  0  0  0  0  0  0  0
   26.5310    0.6610   18.4346 C   0  0  0  0  0  0  0  0  0  0  0  0
   28.6846    1.6110   19.8933 C   0  0  0  0  0  0  0  0  0  0  0  0
   26.5389    1.9753   18.8849 C   0  0  0  0  0  0  0  0  0  0  0  0
   27.6132    2.4485   19.6124 C   0  0  0  0  0  0  0  0  0  0  0  0
   28.6742    0.2957   19.4463 C   0  0  0  0  0  0  0  0  0  0  0  0
   27.6006   -0.1772   18.7201 C   0  0  0  0  0  0  0  0  0  0  0  0
   30.8284    2.6422   19.9961 C   0  0  0  0  0  0  0  0  0  0  0  0
   29.7741    2.0920   20.6303 N   0  0  0  0  0  0  0  0  0  0  0  0
   30.7978    2.7974   18.7931 O   0  0  0  0  0  0  0  0  0  0  0  0
   29.7695    2.0291   21.5982 H   0  0  0  0  0  0  0  0  0  0  0  0
   32.0437    3.0633   20.7800 C   0  0  0  0  0  0  0  0  0  0  0  0
   32.5946    4.4678   20.5290 C   0  0  0  0  0  0  0  0  0  0  0  0
   33.3533    3.2450   20.0094 C   0  0  0  0  0  0  0  0  0  0  0  0
   24.0377    0.1469   15.6597 C   0  0  0  0  0  0  0  0  0  0  0  0
   25.0465   -0.2671   12.1734 C   0  0  0  0  0  0  0  0  0  0  0  0
   24.8839   -1.5409   12.5835 N   0  0  0  0  0  0  0  0  0  0  0  0
   24.7574    0.5725   13.2622 C   0  0  0  0  0  0  0  0  0  0  0  0
   24.8508    1.9533   13.1177 C   0  0  0  0  0  0  0  0  0  0  0  0
   25.2239    2.4864   11.9156 C   0  0  0  0  0  0  0  0  0  0  0  0
   25.5116    1.6621   10.8359 C   0  0  0  0  0  0  0  0  0  0  0  0
   25.4266    0.3057   10.9513 C   0  0  0  0  0  0  0  0  0  0  0  0
   24.4196   -0.2580   14.3052 N   0  0  0  0  0  0  0  0  0  0  0  0
   24.5179   -1.5695   13.8167 N   0  0  0  0  0  0  0  0  0  0  0  0
   24.4901   -0.7470   18.3125 C   0  0  0  0  0  0  0  0  0  0  0  0
   23.3907    0.0337   18.9868 C   0  0  0  0  0  0  0  0  0  0  0  0
   23.6382    0.9468   19.9966 C   0  0  0  0  0  0  0  0  0  0  0  0
   22.5536    1.5520   20.4852 C   0  0  0  0  0  0  0  0  0  0  0  0
   22.1072   -0.1000   18.6511 C   0  0  0  0  0  0  0  0  0  0  0  0
   21.1228    0.9616   19.6499 S   0  0  0  0  0  0  0  0  0  0  0  0
 18 24  1  0
 19 18  1  0
  1  4  1  0
  1  2  1  0
 28 27  1  0
  4  9  2  0
  5 11  1  0
  5  8  2  0
 29 28  1  0
 30 32  1  0
 30 29  2  0
 31 28  2  0
  2 17  1  0
 17 25  1  0
 20 18  2  0
 20 21  1  0
 21 22  2  0
 22 23  1  0
 24 23  2  0
 27  1  1  0
  6  7  2  0
  6  4  1  0
  7  5  1  0
 10 11  1  0
 10 14  1  0
 14 16  1  0
 14 15  1  0
 16 15  1  0
  9  8  1  0
 25 20  1  0
 26 25  1  0
 26 19  2  0
 11 13  1  0
  3  2  2  0
 12 10  2  0
 32 31  1  0
M  END
> <minimizedAffinity>
-6.00679

> <CNNscore>
0.2597739100

> <CNNaffinity>
5.6270790100

> <CNN_VS>
1.4617682695

> <CNNaffinity_variance>
0.3743303716

$$$$
