Y6J


 32 36  0  0  0  0  0  0  0  0999 V2000
   25.7988   -0.3234   14.7059 N   0  0  0  0  0  0  0  0  0  0  0  0
   24.7458   -0.3250   15.5488 C   0  0  0  0  0  0  0  0  0  0  0  0
   24.6484   -1.1880   16.3951 O   0  0  0  0  0  0  0  0  0  0  0  0
   26.7258   -1.3722   14.7428 C   0  0  0  0  0  0  0  0  0  0  0  0
   28.5576   -3.4477   14.8136 C   0  0  0  0  0  0  0  0  0  0  0  0
   26.4118   -2.5954   14.1637 C   0  0  0  0  0  0  0  0  0  0  0  0
   27.3257   -3.6300   14.1992 C   0  0  0  0  0  0  0  0  0  0  0  0
   28.8726   -2.2231   15.3888 C   0  0  0  0  0  0  0  0  0  0  0  0
   27.9598   -1.1891   15.3527 C   0  0  0  0  0  0  0  0  0  0  0  0
   29.4080   -5.4315   15.8191 C   0  0  0  0  0  0  0  0  0  0  0  0
   29.4836   -4.4979   14.8500 N   0  0  0  0  0  0  0  0  0  0  0  0
   28.4885   -5.4100   16.6104 O   0  0  0  0  0  0  0  0  0  0  0  0
   30.1796   -4.5532   14.1768 H   0  0  0  0  0  0  0  0  0  0  0  0
   30.4648   -6.5002   15.9202 C   0  0  0  0  0  0  0  0  0  0  0  0
   31.8874   -6.0567   16.2644 C   0  0  0  0  0  0  0  0  0  0  0  0
   31.5537   -6.5205   14.8452 C   0  0  0  0  0  0  0  0  0  0  0  0
   23.6910    0.7459   15.4389 C   0  0  0  0  0  0  0  0  0  0  0  0
   22.7045    1.5592   18.8607 C   0  0  0  0  0  0  0  0  0  0  0  0
   21.5989    0.9626   18.3721 N   0  0  0  0  0  0  0  0  0  0  0  0
   23.6679    1.5764   17.8382 C   0  0  0  0  0  0  0  0  0  0  0  0
   24.9167    2.1445   18.0709 C   0  0  0  0  0  0  0  0  0  0  0  0
   25.2000    2.6835   19.2947 C   0  0  0  0  0  0  0  0  0  0  0  0
   24.2520    2.6702   20.3091 C   0  0  0  0  0  0  0  0  0  0  0  0
   23.0210    2.1187   20.1069 C   0  0  0  0  0  0  0  0  0  0  0  0
   23.0830    0.9676   16.7525 N   0  0  0  0  0  0  0  0  0  0  0  0
   21.7873    0.6055   17.1504 N   0  0  0  0  0  0  0  0  0  0  0  0
   25.9703    0.7750   13.7521 C   0  0  0  0  0  0  0  0  0  0  0  0
   25.2523    0.4422   12.4689 C   0  0  0  0  0  0  0  0  0  0  0  0
   25.3446    1.2338   11.3378 C   0  0  0  0  0  0  0  0  0  0  0  0
   24.6472    0.7964   10.2873 C   0  0  0  0  0  0  0  0  0  0  0  0
   24.4848   -0.6402   12.3371 C   0  0  0  0  0  0  0  0  0  0  0  0
   23.8145   -0.6935   10.7119 S   0  0  0  0  0  0  0  0  0  0  0  0
 18 24  1  0
 19 18  1  0
  1  4  1  0
  1  2  1  0
 28 27  1  0
  4  9  2  0
  5 11  1  0
  5  8  2  0
 29 28  1  0
 30 32  1  0
 30 29  2  0
 31 28  2  0
  2 17  1  0
 17 25  1  0
 20 18  2  0
 20 21  1  0
 21 22  2  0
 22 23  1  0
 24 23  2  0
 27  1  1  0
  6  7  2  0
  6  4  1  0
  7  5  1  0
 10 11  1  0
 10 14  1  0
 14 16  1  0
 14 15  1  0
 16 15  1  0
  9  8  1  0
 25 20  1  0
 26 25  1  0
 26 19  2  0
 11 13  1  0
  3  2  2  0
 12 10  2  0
 32 31  1  0
M  END
> <minimizedAffinity>
-7.42762

> <CNNscore>
0.7092782259

> <CNNaffinity>
6.8644480705

> <CNN_VS>
4.8688035011

> <CNNaffinity_variance>
0.2169001549

$$$$
Y6J


 32 36  0  0  0  0  0  0  0  0999 V2000
   24.7596   -1.4301   14.8557 N   0  0  0  0  0  0  0  0  0  0  0  0
   24.1778   -0.9724   15.9832 C   0  0  0  0  0  0  0  0  0  0  0  0
   24.5411   -1.3861   17.0636 O   0  0  0  0  0  0  0  0  0  0  0  0
   25.7123   -2.4540   14.9264 C   0  0  0  0  0  0  0  0  0  0  0  0
   27.5983   -4.4769   15.0651 C   0  0  0  0  0  0  0  0  0  0  0  0
   26.8785   -2.3685   14.1763 C   0  0  0  0  0  0  0  0  0  0  0  0
   27.8187   -3.3776   14.2459 C   0  0  0  0  0  0  0  0  0  0  0  0
   26.4338   -4.5598   15.8181 C   0  0  0  0  0  0  0  0  0  0  0  0
   25.4948   -3.5513   15.7491 C   0  0  0  0  0  0  0  0  0  0  0  0
   29.4985   -5.4774   16.0934 C   0  0  0  0  0  0  0  0  0  0  0  0
   28.5519   -5.5004   15.1344 N   0  0  0  0  0  0  0  0  0  0  0  0
   29.4747   -4.6159   16.9475 O   0  0  0  0  0  0  0  0  0  0  0  0
   28.5304   -6.2264   14.4917 H   0  0  0  0  0  0  0  0  0  0  0  0
   30.5857   -6.5199   16.1043 C   0  0  0  0  0  0  0  0  0  0  0  0
   31.9333   -6.1291   16.7130 C   0  0  0  0  0  0  0  0  0  0  0  0
   31.7962   -6.2876   15.1974 C   0  0  0  0  0  0  0  0  0  0  0  0
   23.0769    0.0536   15.9000 C   0  0  0  0  0  0  0  0  0  0  0  0
   22.8111    1.6933   19.1533 C   0  0  0  0  0  0  0  0  0  0  0  0
   21.7952    0.8080   19.1887 N   0  0  0  0  0  0  0  0  0  0  0  0
   23.4552    1.5551   17.9123 C   0  0  0  0  0  0  0  0  0  0  0  0
   24.5483    2.3593   17.6045 C   0  0  0  0  0  0  0  0  0  0  0  0
   24.9903    3.2808   18.5121 C   0  0  0  0  0  0  0  0  0  0  0  0
   24.3577    3.4227   19.7400 C   0  0  0  0  0  0  0  0  0  0  0  0
   23.2850    2.6462   20.0664 C   0  0  0  0  0  0  0  0  0  0  0  0
   22.7815    0.5613   17.2414 N   0  0  0  0  0  0  0  0  0  0  0  0
   21.7525    0.1336   18.0937 N   0  0  0  0  0  0  0  0  0  0  0  0
   24.3930   -0.8565   13.5589 C   0  0  0  0  0  0  0  0  0  0  0  0
   25.0650    0.4831   13.3945 C   0  0  0  0  0  0  0  0  0  0  0  0
   24.8887    1.2711   12.2708 C   0  0  0  0  0  0  0  0  0  0  0  0
   25.5550    2.4274   12.2851 C   0  0  0  0  0  0  0  0  0  0  0  0
   25.8697    0.9999   14.3237 C   0  0  0  0  0  0  0  0  0  0  0  0
   26.4670    2.5634   13.7829 S   0  0  0  0  0  0  0  0  0  0  0  0
 18 24  1  0
 19 18  1  0
  1  4  1  0
  1  2  1  0
 28 27  1  0
  4  9  2  0
  5 11  1  0
  5  8  2  0
 29 28  1  0
 30 32  1  0
 30 29  2  0
 31 28  2  0
  2 17  1  0
 17 25  1  0
 20 18  2  0
 20 21  1  0
 21 22  2  0
 22 23  1  0
 24 23  2  0
 27  1  1  0
  6  7  2  0
  6  4  1  0
  7  5  1  0
 10 11  1  0
 10 14  1  0
 14 16  1  0
 14 15  1  0
 16 15  1  0
  9  8  1  0
 25 20  1  0
 26 25  1  0
 26 19  2  0
 11 13  1  0
  3  2  2  0
 12 10  2  0
 32 31  1  0
M  END
> <minimizedAffinity>
-7.25350

> <CNNscore>
0.4852581024

> <CNNaffinity>
6.5338478088

> <CNN_VS>
3.1706025600

> <CNNaffinity_variance>
0.0747556165

$$$$
Y6J


 32 36  0  0  0  0  0  0  0  0999 V2000
   25.7270   -3.0831   15.5885 N   0  0  0  0  0  0  0  0  0  0  0  0
   25.0173   -2.0937   16.1687 C   0  0  0  0  0  0  0  0  0  0  0  0
   24.8321   -2.1032   17.3671 O   0  0  0  0  0  0  0  0  0  0  0  0
   26.1646   -4.1712   16.3536 C   0  0  0  0  0  0  0  0  0  0  0  0
   27.0276   -6.3245   17.8658 C   0  0  0  0  0  0  0  0  0  0  0  0
   25.2493   -5.1136   16.8052 C   0  0  0  0  0  0  0  0  0  0  0  0
   25.6802   -6.1873   17.5593 C   0  0  0  0  0  0  0  0  0  0  0  0
   27.9429   -5.3841   17.4103 C   0  0  0  0  0  0  0  0  0  0  0  0
   27.5125   -4.3117   16.6564 C   0  0  0  0  0  0  0  0  0  0  0  0
   27.3910   -7.3652   19.9764 C   0  0  0  0  0  0  0  0  0  0  0  0
   27.4636   -7.4132   18.6314 N   0  0  0  0  0  0  0  0  0  0  0  0
   26.8708   -6.4140   20.5212 O   0  0  0  0  0  0  0  0  0  0  0  0
   27.8179   -8.2025   18.1929 H   0  0  0  0  0  0  0  0  0  0  0  0
   27.9559   -8.4911   20.8023 C   0  0  0  0  0  0  0  0  0  0  0  0
   27.2560   -8.8194   22.1220 C   0  0  0  0  0  0  0  0  0  0  0  0
   28.6204   -8.1273   22.1319 C   0  0  0  0  0  0  0  0  0  0  0  0
   24.4551   -0.9765   15.3276 C   0  0  0  0  0  0  0  0  0  0  0  0
   23.9848    1.8764   17.5600 C   0  0  0  0  0  0  0  0  0  0  0  0
   25.0377    2.2617   16.8116 N   0  0  0  0  0  0  0  0  0  0  0  0
   23.5971    0.5977   17.1257 C   0  0  0  0  0  0  0  0  0  0  0  0
   22.5257   -0.0472   17.7361 C   0  0  0  0  0  0  0  0  0  0  0  0
   21.8552    0.5674   18.7563 C   0  0  0  0  0  0  0  0  0  0  0  0
   22.2338    1.8308   19.1905 C   0  0  0  0  0  0  0  0  0  0  0  0
   23.2798    2.4846   18.6084 C   0  0  0  0  0  0  0  0  0  0  0  0
   24.4554    0.2653   16.1037 N   0  0  0  0  0  0  0  0  0  0  0  0
   25.3343    1.3487   15.9549 N   0  0  0  0  0  0  0  0  0  0  0  0
   26.0378   -3.0184   14.1586 C   0  0  0  0  0  0  0  0  0  0  0  0
   27.0983   -1.9732   13.9222 C   0  0  0  0  0  0  0  0  0  0  0  0
   26.8862   -0.8664   13.1194 C   0  0  0  0  0  0  0  0  0  0  0  0
   27.9283   -0.0388   13.0164 C   0  0  0  0  0  0  0  0  0  0  0  0
   28.3095   -2.0434   14.4754 C   0  0  0  0  0  0  0  0  0  0  0  0
   29.2694   -0.6586   13.9708 S   0  0  0  0  0  0  0  0  0  0  0  0
 18 24  1  0
 19 18  1  0
  1  4  1  0
  1  2  1  0
 28 27  1  0
  4  9  2  0
  5 11  1  0
  5  8  2  0
 29 28  1  0
 30 32  1  0
 30 29  2  0
 31 28  2  0
  2 17  1  0
 17 25  1  0
 20 18  2  0
 20 21  1  0
 21 22  2  0
 22 23  1  0
 24 23  2  0
 27  1  1  0
  6  7  2  0
  6  4  1  0
  7  5  1  0
 10 11  1  0
 10 14  1  0
 14 16  1  0
 14 15  1  0
 16 15  1  0
  9  8  1  0
 25 20  1  0
 26 25  1  0
 26 19  2  0
 11 13  1  0
  3  2  2  0
 12 10  2  0
 32 31  1  0
M  END
> <minimizedAffinity>
-6.54141

> <CNNscore>
0.3779214323

> <CNNaffinity>
6.0757536888

> <CNN_VS>
2.2961575985

> <CNNaffinity_variance>
0.0640942231

$$$$
Y6J


 32 36  0  0  0  0  0  0  0  0999 V2000
   25.7680   -2.9656   15.1880 N   0  0  0  0  0  0  0  0  0  0  0  0
   25.0860   -1.8722   15.5864 C   0  0  0  0  0  0  0  0  0  0  0  0
   24.8131   -1.7219   16.7583 O   0  0  0  0  0  0  0  0  0  0  0  0
   26.0736   -3.9738   16.1105 C   0  0  0  0  0  0  0  0  0  0  0  0
   26.6758   -5.9693   17.9336 C   0  0  0  0  0  0  0  0  0  0  0  0
   25.1375   -4.9604   16.3943 C   0  0  0  0  0  0  0  0  0  0  0  0
   25.4385   -5.9553   17.3036 C   0  0  0  0  0  0  0  0  0  0  0  0
   27.6129   -4.9849   17.6462 C   0  0  0  0  0  0  0  0  0  0  0  0
   27.3126   -3.9912   16.7373 C   0  0  0  0  0  0  0  0  0  0  0  0
   26.9700   -6.7105   20.1772 C   0  0  0  0  0  0  0  0  0  0  0  0
   26.9799   -6.9781   18.8563 N   0  0  0  0  0  0  0  0  0  0  0  0
   26.6163   -5.6188   20.5713 O   0  0  0  0  0  0  0  0  0  0  0  0
   27.1974   -7.8703   18.5440 H   0  0  0  0  0  0  0  0  0  0  0  0
   27.3984   -7.7656   21.1632 C   0  0  0  0  0  0  0  0  0  0  0  0
   26.3607   -8.2469   22.1784 C   0  0  0  0  0  0  0  0  0  0  0  0
   27.5167   -7.3532   22.6321 C   0  0  0  0  0  0  0  0  0  0  0  0
   24.6640   -0.8375   14.5751 C   0  0  0  0  0  0  0  0  0  0  0  0
   24.7161    2.5174   16.0194 C   0  0  0  0  0  0  0  0  0  0  0  0
   23.5303    2.0358   16.4425 N   0  0  0  0  0  0  0  0  0  0  0  0
   25.3326    1.5178   15.2481 C   0  0  0  0  0  0  0  0  0  0  0  0
   26.5799    1.7520   14.6775 C   0  0  0  0  0  0  0  0  0  0  0  0
   27.1997    2.9549   14.8704 C   0  0  0  0  0  0  0  0  0  0  0  0
   26.5955    3.9470   15.6310 C   0  0  0  0  0  0  0  0  0  0  0  0
   25.3738    3.7422   16.2018 C   0  0  0  0  0  0  0  0  0  0  0  0
   24.4673    0.4487   15.2470 N   0  0  0  0  0  0  0  0  0  0  0  0
   23.3570    0.8355   16.0124 N   0  0  0  0  0  0  0  0  0  0  0  0
   26.1866   -3.0974   13.7906 C   0  0  0  0  0  0  0  0  0  0  0  0
   27.4646   -3.8943   13.7225 C   0  0  0  0  0  0  0  0  0  0  0  0
   27.4844   -5.2441   13.4185 C   0  0  0  0  0  0  0  0  0  0  0  0
   28.6985   -5.7981   13.3994 C   0  0  0  0  0  0  0  0  0  0  0  0
   28.6612   -3.3501   13.9455 C   0  0  0  0  0  0  0  0  0  0  0  0
   29.9081   -4.5799   13.7824 S   0  0  0  0  0  0  0  0  0  0  0  0
 18 24  1  0
 19 18  1  0
  1  4  1  0
  1  2  1  0
 28 27  1  0
  4  9  2  0
  5 11  1  0
  5  8  2  0
 29 28  1  0
 30 32  1  0
 30 29  2  0
 31 28  2  0
  2 17  1  0
 17 25  1  0
 20 18  2  0
 20 21  1  0
 21 22  2  0
 22 23  1  0
 24 23  2  0
 27  1  1  0
  6  7  2  0
  6  4  1  0
  7  5  1  0
 10 11  1  0
 10 14  1  0
 14 16  1  0
 14 15  1  0
 16 15  1  0
  9  8  1  0
 25 20  1  0
 26 25  1  0
 26 19  2  0
 11 13  1  0
  3  2  2  0
 12 10  2  0
 32 31  1  0
M  END
> <minimizedAffinity>
-7.12771

> <CNNscore>
0.3554245830

> <CNNaffinity>
6.0835456848

> <CNN_VS>
2.1622416973

> <CNNaffinity_variance>
0.1995631009

$$$$
Y6J


 32 36  0  0  0  0  0  0  0  0999 V2000
   25.2465    0.1490   15.4762 N   0  0  0  0  0  0  0  0  0  0  0  0
   26.4856   -0.3537   15.2992 C   0  0  0  0  0  0  0  0  0  0  0  0
   27.2663   -0.3819   16.2266 O   0  0  0  0  0  0  0  0  0  0  0  0
   24.8953    0.7282   16.7017 C   0  0  0  0  0  0  0  0  0  0  0  0
   24.2002    1.8709   19.1265 C   0  0  0  0  0  0  0  0  0  0  0  0
   24.1392    0.0073   17.6175 C   0  0  0  0  0  0  0  0  0  0  0  0
   23.7929    0.5777   18.8266 C   0  0  0  0  0  0  0  0  0  0  0  0
   24.9598    2.5896   18.2120 C   0  0  0  0  0  0  0  0  0  0  0  0
   25.3064    2.0196   17.0043 C   0  0  0  0  0  0  0  0  0  0  0  0
   24.6623    2.3205   21.4186 C   0  0  0  0  0  0  0  0  0  0  0  0
   23.8478    2.4489   20.3525 N   0  0  0  0  0  0  0  0  0  0  0  0
   25.7398    1.7764   21.2954 O   0  0  0  0  0  0  0  0  0  0  0  0
   23.0168    2.9424   20.4340 H   0  0  0  0  0  0  0  0  0  0  0  0
   24.2349    2.8512   22.7620 C   0  0  0  0  0  0  0  0  0  0  0  0
   25.2763    3.6102   23.5857 C   0  0  0  0  0  0  0  0  0  0  0  0
   24.8477    2.2026   24.0052 C   0  0  0  0  0  0  0  0  0  0  0  0
   26.8992   -0.8805   13.9490 C   0  0  0  0  0  0  0  0  0  0  0  0
   29.4952   -3.4362   14.2192 C   0  0  0  0  0  0  0  0  0  0  0  0
   30.1874   -2.2955   14.4111 N   0  0  0  0  0  0  0  0  0  0  0  0
   28.1494   -3.0896   14.0125 C   0  0  0  0  0  0  0  0  0  0  0  0
   27.2041   -4.0846   13.7824 C   0  0  0  0  0  0  0  0  0  0  0  0
   27.5902   -5.3955   13.7587 C   0  0  0  0  0  0  0  0  0  0  0  0
   28.9188   -5.7445   13.9617 C   0  0  0  0  0  0  0  0  0  0  0  0
   29.8645   -4.7886   14.1901 C   0  0  0  0  0  0  0  0  0  0  0  0
   28.0912   -1.7181   14.0971 N   0  0  0  0  0  0  0  0  0  0  0  0
   29.4001   -1.2797   14.3482 N   0  0  0  0  0  0  0  0  0  0  0  0
   24.2706    0.0896   14.3855 C   0  0  0  0  0  0  0  0  0  0  0  0
   24.6498    1.0842   13.3179 C   0  0  0  0  0  0  0  0  0  0  0  0
   24.8512    0.7190   11.9985 C   0  0  0  0  0  0  0  0  0  0  0  0
   25.1813    1.7217   11.1819 C   0  0  0  0  0  0  0  0  0  0  0  0
   24.8112    2.3829   13.5732 C   0  0  0  0  0  0  0  0  0  0  0  0
   25.2526    3.2245   12.0931 S   0  0  0  0  0  0  0  0  0  0  0  0
 18 24  1  0
 19 18  1  0
  1  4  1  0
  1  2  1  0
 28 27  1  0
  4  9  2  0
  5 11  1  0
  5  8  2  0
 29 28  1  0
 30 32  1  0
 30 29  2  0
 31 28  2  0
  2 17  1  0
 17 25  1  0
 20 18  2  0
 20 21  1  0
 21 22  2  0
 22 23  1  0
 24 23  2  0
 27  1  1  0
  6  7  2  0
  6  4  1  0
  7  5  1  0
 10 11  1  0
 10 14  1  0
 14 16  1  0
 14 15  1  0
 16 15  1  0
  9  8  1  0
 25 20  1  0
 26 25  1  0
 26 19  2  0
 11 13  1  0
  3  2  2  0
 12 10  2  0
 32 31  1  0
M  END
> <minimizedAffinity>
-7.49248

> <CNNscore>
0.2692648768

> <CNNaffinity>
5.7286047935

> <CNN_VS>
1.5425120592

> <CNNaffinity_variance>
0.4239057600

$$$$
Y6J


 32 36  0  0  0  0  0  0  0  0999 V2000
   26.5434    1.0374   15.2005 N   0  0  0  0  0  0  0  0  0  0  0  0
   27.0300    2.2800   15.3961 C   0  0  0  0  0  0  0  0  0  0  0  0
   28.2261    2.4540   15.4941 O   0  0  0  0  0  0  0  0  0  0  0  0
   27.4100   -0.0625   15.2100 C   0  0  0  0  0  0  0  0  0  0  0  0
   29.1226   -2.2385   15.2313 C   0  0  0  0  0  0  0  0  0  0  0  0
   27.6989   -0.7069   16.4064 C   0  0  0  0  0  0  0  0  0  0  0  0
   28.5530   -1.7920   16.4164 C   0  0  0  0  0  0  0  0  0  0  0  0
   28.8299   -1.5963   14.0347 C   0  0  0  0  0  0  0  0  0  0  0  0
   27.9761   -0.5126   14.0246 C   0  0  0  0  0  0  0  0  0  0  0  0
   29.5295   -4.5572   15.5882 C   0  0  0  0  0  0  0  0  0  0  0  0
   29.9895   -3.3385   15.2425 N   0  0  0  0  0  0  0  0  0  0  0  0
   28.3472   -4.7183   15.8085 O   0  0  0  0  0  0  0  0  0  0  0  0
   30.9216   -3.2228   15.0007 H   0  0  0  0  0  0  0  0  0  0  0  0
   30.4825   -5.7182   15.7017 C   0  0  0  0  0  0  0  0  0  0  0  0
   30.1384   -6.8191   16.7060 C   0  0  0  0  0  0  0  0  0  0  0  0
   31.2849   -5.8491   16.9981 C   0  0  0  0  0  0  0  0  0  0  0  0
   26.0872    3.4520   15.4922 C   0  0  0  0  0  0  0  0  0  0  0  0
   27.2642    6.2314   13.4348 C   0  0  0  0  0  0  0  0  0  0  0  0
   27.9540    6.4034   14.5801 N   0  0  0  0  0  0  0  0  0  0  0  0
   26.4502    5.0972   13.5926 C   0  0  0  0  0  0  0  0  0  0  0  0
   25.6201    4.6889   12.5531 C   0  0  0  0  0  0  0  0  0  0  0  0
   25.6007    5.3943   11.3825 C   0  0  0  0  0  0  0  0  0  0  0  0
   26.4024    6.5165   11.2206 C   0  0  0  0  0  0  0  0  0  0  0  0
   27.2254    6.9369   12.2237 C   0  0  0  0  0  0  0  0  0  0  0  0
   26.6986    4.6225   14.8593 N   0  0  0  0  0  0  0  0  0  0  0  0
   27.6494    5.4837   15.4270 N   0  0  0  0  0  0  0  0  0  0  0  0
   25.1089    0.8401   14.9799 C   0  0  0  0  0  0  0  0  0  0  0  0
   24.8699    0.4600   13.5407 C   0  0  0  0  0  0  0  0  0  0  0  0
   25.1491    1.3150   12.4892 C   0  0  0  0  0  0  0  0  0  0  0  0
   24.8796    0.8230   11.2781 C   0  0  0  0  0  0  0  0  0  0  0  0
   24.3787   -0.7275   13.1853 C   0  0  0  0  0  0  0  0  0  0  0  0
   24.2356   -0.8063   11.4340 S   0  0  0  0  0  0  0  0  0  0  0  0
 18 24  1  0
 19 18  1  0
  1  4  1  0
  1  2  1  0
 28 27  1  0
  4  9  2  0
  5 11  1  0
  5  8  2  0
 29 28  1  0
 30 32  1  0
 30 29  2  0
 31 28  2  0
  2 17  1  0
 17 25  1  0
 20 18  2  0
 20 21  1  0
 21 22  2  0
 22 23  1  0
 24 23  2  0
 27  1  1  0
  6  7  2  0
  6  4  1  0
  7  5  1  0
 10 11  1  0
 10 14  1  0
 14 16  1  0
 14 15  1  0
 16 15  1  0
  9  8  1  0
 25 20  1  0
 26 25  1  0
 26 19  2  0
 11 13  1  0
  3  2  2  0
 12 10  2  0
 32 31  1  0
M  END
> <minimizedAffinity>
-6.17790

> <CNNscore>
0.2445709258

> <CNNaffinity>
5.4724249840

> <CNN_VS>
1.3383960724

> <CNNaffinity_variance>
0.5818727612

$$$$
Y6J


 32 36  0  0  0  0  0  0  0  0999 V2000
   25.1748   -0.1849   15.9229 N   0  0  0  0  0  0  0  0  0  0  0  0
   24.2441   -0.2708   14.9505 C   0  0  0  0  0  0  0  0  0  0  0  0
   23.1723    0.2796   15.0871 O   0  0  0  0  0  0  0  0  0  0  0  0
   24.8679    0.4548   17.1301 C   0  0  0  0  0  0  0  0  0  0  0  0
   24.2597    1.7174   19.5185 C   0  0  0  0  0  0  0  0  0  0  0  0
   23.9080   -0.0859   17.9765 C   0  0  0  0  0  0  0  0  0  0  0  0
   23.6051    0.5442   19.1674 C   0  0  0  0  0  0  0  0  0  0  0  0
   25.2225    2.2553   18.6737 C   0  0  0  0  0  0  0  0  0  0  0  0
   25.5255    1.6255   17.4841 C   0  0  0  0  0  0  0  0  0  0  0  0
   24.8148    2.3001   21.7595 C   0  0  0  0  0  0  0  0  0  0  0  0
   23.9514    2.3563   20.7261 N   0  0  0  0  0  0  0  0  0  0  0  0
   25.8957    1.7678   21.6172 O   0  0  0  0  0  0  0  0  0  0  0  0
   23.1156    2.8399   20.8184 H   0  0  0  0  0  0  0  0  0  0  0  0
   24.4376    2.8970   23.0901 C   0  0  0  0  0  0  0  0  0  0  0  0
   25.5697    3.4145   23.9787 C   0  0  0  0  0  0  0  0  0  0  0  0
   24.8360    2.1241   24.3493 C   0  0  0  0  0  0  0  0  0  0  0  0
   24.5368   -1.0503   13.6941 C   0  0  0  0  0  0  0  0  0  0  0  0
   24.8582    1.6479   11.2527 C   0  0  0  0  0  0  0  0  0  0  0  0
   24.4386    0.6158   10.4938 N   0  0  0  0  0  0  0  0  0  0  0  0
   24.9651    1.1890   12.5764 C   0  0  0  0  0  0  0  0  0  0  0  0
   25.3869    2.0563   13.5795 C   0  0  0  0  0  0  0  0  0  0  0  0
   25.6955    3.3517   13.2716 C   0  0  0  0  0  0  0  0  0  0  0  0
   25.5925    3.8112   11.9653 C   0  0  0  0  0  0  0  0  0  0  0  0
   25.1806    2.9816   10.9641 C   0  0  0  0  0  0  0  0  0  0  0  0
   24.5894   -0.1338   12.5532 N   0  0  0  0  0  0  0  0  0  0  0  0
   24.2712   -0.4331   11.2199 N   0  0  0  0  0  0  0  0  0  0  0  0
   26.5049   -0.7622   15.7152 C   0  0  0  0  0  0  0  0  0  0  0  0
   26.4108   -2.2664   15.7546 C   0  0  0  0  0  0  0  0  0  0  0  0
   25.4533   -2.9328   16.4988 C   0  0  0  0  0  0  0  0  0  0  0  0
   25.5089   -4.2641   16.4230 C   0  0  0  0  0  0  0  0  0  0  0  0
   27.2410   -3.0544   15.0707 C   0  0  0  0  0  0  0  0  0  0  0  0
   26.8305   -4.7394   15.3642 S   0  0  0  0  0  0  0  0  0  0  0  0
 18 24  1  0
 19 18  1  0
  1  4  1  0
  1  2  1  0
 28 27  1  0
  4  9  2  0
  5 11  1  0
  5  8  2  0
 29 28  1  0
 30 32  1  0
 30 29  2  0
 31 28  2  0
  2 17  1  0
 17 25  1  0
 20 18  2  0
 20 21  1  0
 21 22  2  0
 22 23  1  0
 24 23  2  0
 27  1  1  0
  6  7  2  0
  6  4  1  0
  7  5  1  0
 10 11  1  0
 10 14  1  0
 14 16  1  0
 14 15  1  0
 16 15  1  0
  9  8  1  0
 25 20  1  0
 26 25  1  0
 26 19  2  0
 11 13  1  0
  3  2  2  0
 12 10  2  0
 32 31  1  0
M  END
> <minimizedAffinity>
-6.74170

> <CNNscore>
0.2125116289

> <CNNaffinity>
5.9253182411

> <CNN_VS>
1.2591990232

> <CNNaffinity_variance>
0.6150634885

$$$$
Y6J


 32 36  0  0  0  0  0  0  0  0999 V2000
   26.1778   -1.7752   15.4730 N   0  0  0  0  0  0  0  0  0  0  0  0
   25.7912   -2.9933   15.9043 C   0  0  0  0  0  0  0  0  0  0  0  0
   25.1054   -3.0944   16.8992 O   0  0  0  0  0  0  0  0  0  0  0  0
   25.8717   -0.6364   16.2280 C   0  0  0  0  0  0  0  0  0  0  0  0
   25.2687    1.6171   17.7203 C   0  0  0  0  0  0  0  0  0  0  0  0
   26.8854    0.2302   16.6173 C   0  0  0  0  0  0  0  0  0  0  0  0
   26.5841    1.3538   17.3614 C   0  0  0  0  0  0  0  0  0  0  0  0
   24.2551    0.7524   17.3271 C   0  0  0  0  0  0  0  0  0  0  0  0
   24.5559   -0.3699   16.5831 C   0  0  0  0  0  0  0  0  0  0  0  0
   24.7344    2.6474   19.7993 C   0  0  0  0  0  0  0  0  0  0  0  0
   24.9642    2.7564   18.4758 N   0  0  0  0  0  0  0  0  0  0  0  0
   24.8734    1.5762   20.3520 O   0  0  0  0  0  0  0  0  0  0  0  0
   24.9190    3.6246   18.0458 H   0  0  0  0  0  0  0  0  0  0  0  0
   24.3045    3.8543   20.5915 C   0  0  0  0  0  0  0  0  0  0  0  0
   25.0872    5.1516   20.3832 C   0  0  0  0  0  0  0  0  0  0  0  0
   25.2533    4.3586   21.6811 C   0  0  0  0  0  0  0  0  0  0  0  0
   26.2110   -4.2283   15.1491 C   0  0  0  0  0  0  0  0  0  0  0  0
   29.1034   -5.9602   16.5555 C   0  0  0  0  0  0  0  0  0  0  0  0
   28.2277   -5.9749   17.5802 N   0  0  0  0  0  0  0  0  0  0  0  0
   28.4891   -5.3003   15.4779 C   0  0  0  0  0  0  0  0  0  0  0  0
   29.1782   -5.1376   14.2800 C   0  0  0  0  0  0  0  0  0  0  0  0
   30.4508   -5.6211   14.1577 C   0  0  0  0  0  0  0  0  0  0  0  0
   31.0637   -6.2736   15.2191 C   0  0  0  0  0  0  0  0  0  0  0  0
   30.4096   -6.4469   16.4034 C   0  0  0  0  0  0  0  0  0  0  0  0
   27.2348   -4.9429   15.9144 N   0  0  0  0  0  0  0  0  0  0  0  0
   27.1317   -5.3935   17.2390 N   0  0  0  0  0  0  0  0  0  0  0  0
   26.9188   -1.6457   14.2161 C   0  0  0  0  0  0  0  0  0  0  0  0
   26.0513   -0.9615   13.1903 C   0  0  0  0  0  0  0  0  0  0  0  0
   24.9136   -1.5498   12.6665 C   0  0  0  0  0  0  0  0  0  0  0  0
   24.2599   -0.8087   11.7694 C   0  0  0  0  0  0  0  0  0  0  0  0
   26.3199    0.2583   12.7236 C   0  0  0  0  0  0  0  0  0  0  0  0
   25.0974    0.7220   11.5471 S   0  0  0  0  0  0  0  0  0  0  0  0
 18 24  1  0
 19 18  1  0
  1  4  1  0
  1  2  1  0
 28 27  1  0
  4  9  2  0
  5 11  1  0
  5  8  2  0
 29 28  1  0
 30 32  1  0
 30 29  2  0
 31 28  2  0
  2 17  1  0
 17 25  1  0
 20 18  2  0
 20 21  1  0
 21 22  2  0
 22 23  1  0
 24 23  2  0
 27  1  1  0
  6  7  2  0
  6  4  1  0
  7  5  1  0
 10 11  1  0
 10 14  1  0
 14 16  1  0
 14 15  1  0
 16 15  1  0
  9  8  1  0
 25 20  1  0
 26 25  1  0
 26 19  2  0
 11 13  1  0
  3  2  2  0
 12 10  2  0
 32 31  1  0
M  END
> <minimizedAffinity>
-6.82403

> <CNNscore>
0.2037772834

> <CNNaffinity>
5.8108191490

> <CNN_VS>
1.1841129065

> <CNNaffinity_variance>
0.2548533380

$$$$
Y6J


 32 36  0  0  0  0  0  0  0  0999 V2000
   26.2317   -2.8721   14.8987 N   0  0  0  0  0  0  0  0  0  0  0  0
   27.3062   -2.4634   14.1932 C   0  0  0  0  0  0  0  0  0  0  0  0
   28.3824   -2.9947   14.3659 O   0  0  0  0  0  0  0  0  0  0  0  0
   26.3793   -3.8400   15.8997 C   0  0  0  0  0  0  0  0  0  0  0  0
   26.6687   -5.7556   17.8784 C   0  0  0  0  0  0  0  0  0  0  0  0
   25.2950   -4.6263   16.2687 C   0  0  0  0  0  0  0  0  0  0  0  0
   25.4399   -5.5815   17.2555 C   0  0  0  0  0  0  0  0  0  0  0  0
   27.7536   -4.9719   17.5061 C   0  0  0  0  0  0  0  0  0  0  0  0
   27.6090   -4.0180   16.5197 C   0  0  0  0  0  0  0  0  0  0  0  0
   26.8802   -6.3526   20.1737 C   0  0  0  0  0  0  0  0  0  0  0  0
   26.8146   -6.7239   18.8798 N   0  0  0  0  0  0  0  0  0  0  0  0
   26.7289   -5.1878   20.4780 O   0  0  0  0  0  0  0  0  0  0  0  0
   26.8680   -7.6625   18.6414 H   0  0  0  0  0  0  0  0  0  0  0  0
   27.1420   -7.3828   21.2410 C   0  0  0  0  0  0  0  0  0  0  0  0
   25.9338   -7.9467   21.9902 C   0  0  0  0  0  0  0  0  0  0  0  0
   26.8845   -6.9760   22.6936 C   0  0  0  0  0  0  0  0  0  0  0  0
   27.1688   -1.3470   13.1900 C   0  0  0  0  0  0  0  0  0  0  0  0
   27.3360    2.0687   14.4741 C   0  0  0  0  0  0  0  0  0  0  0  0
   28.2590    1.4305   15.2210 N   0  0  0  0  0  0  0  0  0  0  0  0
   26.7758    1.1291   13.5925 C   0  0  0  0  0  0  0  0  0  0  0  0
   25.7825    1.5209   12.7002 C   0  0  0  0  0  0  0  0  0  0  0  0
   25.3564    2.8196   12.6860 C   0  0  0  0  0  0  0  0  0  0  0  0
   25.9057    3.7529   13.5551 C   0  0  0  0  0  0  0  0  0  0  0  0
   26.8810    3.3945   14.4386 C   0  0  0  0  0  0  0  0  0  0  0  0
   27.4090   -0.0637   13.8532 N   0  0  0  0  0  0  0  0  0  0  0  0
   28.3270    0.1908   14.8832 N   0  0  0  0  0  0  0  0  0  0  0  0
   24.9122   -2.3016   14.6176 C   0  0  0  0  0  0  0  0  0  0  0  0
   24.6884   -1.0974   15.4966 C   0  0  0  0  0  0  0  0  0  0  0  0
   25.4647   -0.8356   16.6117 C   0  0  0  0  0  0  0  0  0  0  0  0
   25.1339    0.2717   17.2793 C   0  0  0  0  0  0  0  0  0  0  0  0
   23.7306   -0.2018   15.2547 C   0  0  0  0  0  0  0  0  0  0  0  0
   23.7714    1.0525   16.4871 S   0  0  0  0  0  0  0  0  0  0  0  0
 18 24  1  0
 19 18  1  0
  1  4  1  0
  1  2  1  0
 28 27  1  0
  4  9  2  0
  5 11  1  0
  5  8  2  0
 29 28  1  0
 30 32  1  0
 30 29  2  0
 31 28  2  0
  2 17  1  0
 17 25  1  0
 20 18  2  0
 20 21  1  0
 21 22  2  0
 22 23  1  0
 24 23  2  0
 27  1  1  0
  6  7  2  0
  6  4  1  0
  7  5  1  0
 10 11  1  0
 10 14  1  0
 14 16  1  0
 14 15  1  0
 16 15  1  0
  9  8  1  0
 25 20  1  0
 26 25  1  0
 26 19  2  0
 11 13  1  0
  3  2  2  0
 12 10  2  0
 32 31  1  0
M  END
> <minimizedAffinity>
-6.95800

> <CNNscore>
0.1967455596

> <CNNaffinity>
5.6080875397

> <CNN_VS>
1.1033663750

> <CNNaffinity_variance>
0.4493051469

$$$$
